
---------- Begin Simulation Statistics ----------
simSeconds                                   9.026414                       # Number of seconds simulated (Second)
simTicks                                 9026413655000                       # Number of ticks simulated (Tick)
finalTick                                9026413655000                       # Number of ticks from beginning of simulation (restored from checkpoints and never reset) (Tick)
simFreq                                  1000000000000                       # The number of ticks per simulated second ((Tick/Second))
hostSeconds                                   1831.82                       # Real time elapsed on the host (Second)
hostTickRate                               4927557992                       # The number of ticks simulated per host second (ticks/s) ((Tick/Second))
hostMemory                                    2506080                       # Number of bytes of host memory used (Byte)
simInsts                                    500000000                       # Number of instructions simulated (Count)
simOps                                      508652402                       # Number of ops (including micro ops) simulated (Count)
hostInstRate                                   272952                       # Simulator instruction rate (inst/s) ((Count/Second))
hostOpRate                                     277676                       # Simulator op (including micro ops) rate (op/s) ((Count/Second))
system.clk_domain.clock                           500                       # Clock period in ticks (Tick)
system.clk_domain.voltage_domain.voltage            1                       # Voltage in Volts (Volt)
system.cpu.numCycles                      18052827310                       # Number of cpu cycles simulated (Cycle)
system.cpu.cpi                              36.105655                       # CPI: cycles per instruction (core level) ((Cycle/Count))
system.cpu.ipc                               0.027696                       # IPC: instructions per cycle (core level) ((Count/Cycle))
system.cpu.numWorkItemsStarted                      0                       # Number of work items this cpu started (Count)
system.cpu.numWorkItemsCompleted                    0                       # Number of work items this cpu completed (Count)
system.cpu.branchPred.lookups_0::NoBranch           28      0.00%      0.00% # Number of BP lookups (Count)
system.cpu.branchPred.lookups_0::Return       4327014     15.57%     15.57% # Number of BP lookups (Count)
system.cpu.branchPred.lookups_0::CallDirect      5123206     18.44%     34.01% # Number of BP lookups (Count)
system.cpu.branchPred.lookups_0::CallIndirect           22      0.00%     34.01% # Number of BP lookups (Count)
system.cpu.branchPred.lookups_0::DirectCond     17474147     62.88%     96.88% # Number of BP lookups (Count)
system.cpu.branchPred.lookups_0::DirectUncond       866050      3.12%    100.00% # Number of BP lookups (Count)
system.cpu.branchPred.lookups_0::IndirectCond           19      0.00%    100.00% # Number of BP lookups (Count)
system.cpu.branchPred.lookups_0::IndirectUncond           77      0.00%    100.00% # Number of BP lookups (Count)
system.cpu.branchPred.lookups_0::total       27790563                       # Number of BP lookups (Count)
system.cpu.branchPred.squashes_0::NoBranch            6      0.00%      0.00% # Number of branches that got squashed (completely removed) as an earlier branch was mispredicted. (Count)
system.cpu.branchPred.squashes_0::Return         1166      0.05%      0.05% # Number of branches that got squashed (completely removed) as an earlier branch was mispredicted. (Count)
system.cpu.branchPred.squashes_0::CallDirect       797365     32.96%     33.01% # Number of branches that got squashed (completely removed) as an earlier branch was mispredicted. (Count)
system.cpu.branchPred.squashes_0::CallIndirect           15      0.00%     33.01% # Number of branches that got squashed (completely removed) as an earlier branch was mispredicted. (Count)
system.cpu.branchPred.squashes_0::DirectCond      1620695     66.99%     99.99% # Number of branches that got squashed (completely removed) as an earlier branch was mispredicted. (Count)
system.cpu.branchPred.squashes_0::DirectUncond          131      0.01%    100.00% # Number of branches that got squashed (completely removed) as an earlier branch was mispredicted. (Count)
system.cpu.branchPred.squashes_0::IndirectCond            6      0.00%    100.00% # Number of branches that got squashed (completely removed) as an earlier branch was mispredicted. (Count)
system.cpu.branchPred.squashes_0::IndirectUncond            2      0.00%    100.00% # Number of branches that got squashed (completely removed) as an earlier branch was mispredicted. (Count)
system.cpu.branchPred.squashes_0::total       2419386                       # Number of branches that got squashed (completely removed) as an earlier branch was mispredicted. (Count)
system.cpu.branchPred.corrected_0::NoBranch            8      0.00%      0.00% # Number of branches that got corrected but not yet commited. Branches get corrected by decode or after execute. Also a branch misprediction can be detected out-of-order. Therefore, a corrected branch might not end up beeing committed in case an even earlier branch was mispredicted (Count)
system.cpu.branchPred.corrected_0::Return            5      0.00%      0.00% # Number of branches that got corrected but not yet commited. Branches get corrected by decode or after execute. Also a branch misprediction can be detected out-of-order. Therefore, a corrected branch might not end up beeing committed in case an even earlier branch was mispredicted (Count)
system.cpu.branchPred.corrected_0::CallDirect           75      0.00%      0.00% # Number of branches that got corrected but not yet commited. Branches get corrected by decode or after execute. Also a branch misprediction can be detected out-of-order. Therefore, a corrected branch might not end up beeing committed in case an even earlier branch was mispredicted (Count)
system.cpu.branchPred.corrected_0::CallIndirect            7      0.00%      0.00% # Number of branches that got corrected but not yet commited. Branches get corrected by decode or after execute. Also a branch misprediction can be detected out-of-order. Therefore, a corrected branch might not end up beeing committed in case an even earlier branch was mispredicted (Count)
system.cpu.branchPred.corrected_0::DirectCond      3908739    100.00%    100.00% # Number of branches that got corrected but not yet commited. Branches get corrected by decode or after execute. Also a branch misprediction can be detected out-of-order. Therefore, a corrected branch might not end up beeing committed in case an even earlier branch was mispredicted (Count)
system.cpu.branchPred.corrected_0::DirectUncond           33      0.00%    100.00% # Number of branches that got corrected but not yet commited. Branches get corrected by decode or after execute. Also a branch misprediction can be detected out-of-order. Therefore, a corrected branch might not end up beeing committed in case an even earlier branch was mispredicted (Count)
system.cpu.branchPred.corrected_0::IndirectCond            0      0.00%    100.00% # Number of branches that got corrected but not yet commited. Branches get corrected by decode or after execute. Also a branch misprediction can be detected out-of-order. Therefore, a corrected branch might not end up beeing committed in case an even earlier branch was mispredicted (Count)
system.cpu.branchPred.corrected_0::IndirectUncond           29      0.00%    100.00% # Number of branches that got corrected but not yet commited. Branches get corrected by decode or after execute. Also a branch misprediction can be detected out-of-order. Therefore, a corrected branch might not end up beeing committed in case an even earlier branch was mispredicted (Count)
system.cpu.branchPred.corrected_0::total      3908896                       # Number of branches that got corrected but not yet commited. Branches get corrected by decode or after execute. Also a branch misprediction can be detected out-of-order. Therefore, a corrected branch might not end up beeing committed in case an even earlier branch was mispredicted (Count)
system.cpu.branchPred.earlyResteers_0::NoBranch            0                       # Number of branches that got redirected after decode. (Count)
system.cpu.branchPred.earlyResteers_0::Return            0                       # Number of branches that got redirected after decode. (Count)
system.cpu.branchPred.earlyResteers_0::CallDirect            0                       # Number of branches that got redirected after decode. (Count)
system.cpu.branchPred.earlyResteers_0::CallIndirect            0                       # Number of branches that got redirected after decode. (Count)
system.cpu.branchPred.earlyResteers_0::DirectCond            0                       # Number of branches that got redirected after decode. (Count)
system.cpu.branchPred.earlyResteers_0::DirectUncond            0                       # Number of branches that got redirected after decode. (Count)
system.cpu.branchPred.earlyResteers_0::IndirectCond            0                       # Number of branches that got redirected after decode. (Count)
system.cpu.branchPred.earlyResteers_0::IndirectUncond            0                       # Number of branches that got redirected after decode. (Count)
system.cpu.branchPred.earlyResteers_0::total            0                       # Number of branches that got redirected after decode. (Count)
system.cpu.branchPred.committed_0::NoBranch           22      0.00%      0.00% # Number of branches finally committed  (Count)
system.cpu.branchPred.committed_0::Return      4325848     17.05%     17.05% # Number of branches finally committed  (Count)
system.cpu.branchPred.committed_0::CallDirect      4325841     17.05%     34.10% # Number of branches finally committed  (Count)
system.cpu.branchPred.committed_0::CallIndirect            7      0.00%     34.10% # Number of branches finally committed  (Count)
system.cpu.branchPred.committed_0::DirectCond     15853451     62.49%     96.59% # Number of branches finally committed  (Count)
system.cpu.branchPred.committed_0::DirectUncond       865919      3.41%    100.00% # Number of branches finally committed  (Count)
system.cpu.branchPred.committed_0::IndirectCond           13      0.00%    100.00% # Number of branches finally committed  (Count)
system.cpu.branchPred.committed_0::IndirectUncond           75      0.00%    100.00% # Number of branches finally committed  (Count)
system.cpu.branchPred.committed_0::total     25371176                       # Number of branches finally committed  (Count)
system.cpu.branchPred.mispredicted_0::NoBranch            8      0.00%      0.00% # Number of committed branches that were mispredicted. (Count)
system.cpu.branchPred.mispredicted_0::Return            5      0.00%      0.00% # Number of committed branches that were mispredicted. (Count)
system.cpu.branchPred.mispredicted_0::CallDirect           75      0.00%      0.00% # Number of committed branches that were mispredicted. (Count)
system.cpu.branchPred.mispredicted_0::CallIndirect            7      0.00%      0.00% # Number of committed branches that were mispredicted. (Count)
system.cpu.branchPred.mispredicted_0::DirectCond      3908739    100.00%    100.00% # Number of committed branches that were mispredicted. (Count)
system.cpu.branchPred.mispredicted_0::DirectUncond           33      0.00%    100.00% # Number of committed branches that were mispredicted. (Count)
system.cpu.branchPred.mispredicted_0::IndirectCond            0      0.00%    100.00% # Number of committed branches that were mispredicted. (Count)
system.cpu.branchPred.mispredicted_0::IndirectUncond           29      0.00%    100.00% # Number of committed branches that were mispredicted. (Count)
system.cpu.branchPred.mispredicted_0::total      3908896                       # Number of committed branches that were mispredicted. (Count)
system.cpu.branchPred.targetProvider_0::NoTarget      4727031     17.01%     17.01% # The component providing the target for taken branches (Count)
system.cpu.branchPred.targetProvider_0::BTB     18736501     67.42%     84.43% # The component providing the target for taken branches (Count)
system.cpu.branchPred.targetProvider_0::RAS      4327012     15.57%    100.00% # The component providing the target for taken branches (Count)
system.cpu.branchPred.targetProvider_0::Indirect           19      0.00%    100.00% # The component providing the target for taken branches (Count)
system.cpu.branchPred.targetProvider_0::total     27790563                       # The component providing the target for taken branches (Count)
system.cpu.branchPred.targetWrong_0::NoBranch      1660604     42.48%     42.48% # Number of branches where the target was incorrect or not available at prediction time. (Count)
system.cpu.branchPred.targetWrong_0::Return      2248279     57.52%    100.00% # Number of branches where the target was incorrect or not available at prediction time. (Count)
system.cpu.branchPred.targetWrong_0::CallDirect            3      0.00%    100.00% # Number of branches where the target was incorrect or not available at prediction time. (Count)
system.cpu.branchPred.targetWrong_0::CallIndirect            1      0.00%    100.00% # Number of branches where the target was incorrect or not available at prediction time. (Count)
system.cpu.branchPred.targetWrong_0::DirectCond            0      0.00%    100.00% # Number of branches where the target was incorrect or not available at prediction time. (Count)
system.cpu.branchPred.targetWrong_0::DirectUncond            0      0.00%    100.00% # Number of branches where the target was incorrect or not available at prediction time. (Count)
system.cpu.branchPred.targetWrong_0::IndirectCond            0      0.00%    100.00% # Number of branches where the target was incorrect or not available at prediction time. (Count)
system.cpu.branchPred.targetWrong_0::IndirectUncond            0      0.00%    100.00% # Number of branches where the target was incorrect or not available at prediction time. (Count)
system.cpu.branchPred.targetWrong_0::total      3908887                       # Number of branches where the target was incorrect or not available at prediction time. (Count)
system.cpu.branchPred.condPredicted          17474201                       # Number of conditional branches predicted (Count)
system.cpu.branchPred.condPredictedTaken     12747813                       # Number of conditional branches predicted as taken (Count)
system.cpu.branchPred.condIncorrect           3908896                       # Number of conditional branches incorrect (Count)
system.cpu.branchPred.predTakenBTBMiss            146                       # Number of branches predicted taken but missed in BTB (Count)
system.cpu.branchPred.NotTakenMispredicted      1660617                       # Number branches predicted 'not taken' but turned out to be taken (Count)
system.cpu.branchPred.TakenMispredicted       2248279                       # Number branches predicted taken but are actually not taken (Count)
system.cpu.branchPred.BTBLookups             27790563                       # Number of BTB lookups (Count)
system.cpu.branchPred.BTBUpdates              1660568                       # Number of BTB updates (Count)
system.cpu.branchPred.BTBHits                23458204                       # Number of BTB hits (Count)
system.cpu.branchPred.BTBHitRatio            0.844107                       # BTB Hit Ratio (Ratio)
system.cpu.branchPred.BTBMispredicted             230                       # Number BTB mispredictions. No target found or target wrong (Count)
system.cpu.branchPred.indirectLookups             100                       # Number of indirect predictor lookups. (Count)
system.cpu.branchPred.indirectHits                 19                       # Number of indirect target hits. (Count)
system.cpu.branchPred.indirectMisses               81                       # Number of indirect misses. (Count)
system.cpu.branchPred.indirectMispredicted            0                       # Number of mispredicted indirect branches. (Count)
system.cpu.branchPred.btb.lookups::NoBranch           28      0.00%      0.00% # Number of BTB lookups (Count)
system.cpu.branchPred.btb.lookups::Return      4327014     15.57%     15.57% # Number of BTB lookups (Count)
system.cpu.branchPred.btb.lookups::CallDirect      5123206     18.44%     34.01% # Number of BTB lookups (Count)
system.cpu.branchPred.btb.lookups::CallIndirect           22      0.00%     34.01% # Number of BTB lookups (Count)
system.cpu.branchPred.btb.lookups::DirectCond     17474147     62.88%     96.88% # Number of BTB lookups (Count)
system.cpu.branchPred.btb.lookups::DirectUncond       866050      3.12%    100.00% # Number of BTB lookups (Count)
system.cpu.branchPred.btb.lookups::IndirectCond           19      0.00%    100.00% # Number of BTB lookups (Count)
system.cpu.branchPred.btb.lookups::IndirectUncond           77      0.00%    100.00% # Number of BTB lookups (Count)
system.cpu.branchPred.btb.lookups::total     27790563                       # Number of BTB lookups (Count)
system.cpu.branchPred.btb.misses::NoBranch           28      0.00%      0.00% # Number of BTB misses (Count)
system.cpu.branchPred.btb.misses::Return      4327013     99.88%     99.88% # Number of BTB misses (Count)
system.cpu.branchPred.btb.misses::CallDirect          235      0.01%     99.88% # Number of BTB misses (Count)
system.cpu.branchPred.btb.misses::CallIndirect           22      0.00%     99.88% # Number of BTB misses (Count)
system.cpu.branchPred.btb.misses::DirectCond         4823      0.11%     99.99% # Number of BTB misses (Count)
system.cpu.branchPred.btb.misses::DirectUncond          142      0.00%    100.00% # Number of BTB misses (Count)
system.cpu.branchPred.btb.misses::IndirectCond           19      0.00%    100.00% # Number of BTB misses (Count)
system.cpu.branchPred.btb.misses::IndirectUncond           77      0.00%    100.00% # Number of BTB misses (Count)
system.cpu.branchPred.btb.misses::total       4332359                       # Number of BTB misses (Count)
system.cpu.branchPred.btb.updates::NoBranch            0      0.00%      0.00% # Number of BTB updates (Count)
system.cpu.branchPred.btb.updates::Return            0      0.00%      0.00% # Number of BTB updates (Count)
system.cpu.branchPred.btb.updates::CallDirect           75      0.00%      0.00% # Number of BTB updates (Count)
system.cpu.branchPred.btb.updates::CallIndirect            0      0.00%      0.00% # Number of BTB updates (Count)
system.cpu.branchPred.btb.updates::DirectCond      1660460     99.99%    100.00% # Number of BTB updates (Count)
system.cpu.branchPred.btb.updates::DirectUncond           33      0.00%    100.00% # Number of BTB updates (Count)
system.cpu.branchPred.btb.updates::IndirectCond            0      0.00%    100.00% # Number of BTB updates (Count)
system.cpu.branchPred.btb.updates::IndirectUncond            0      0.00%    100.00% # Number of BTB updates (Count)
system.cpu.branchPred.btb.updates::total      1660568                       # Number of BTB updates (Count)
system.cpu.branchPred.btb.mispredict::NoBranch            0      0.00%      0.00% # Number of BTB mispredictions. No target found or target wrong. (Count)
system.cpu.branchPred.btb.mispredict::Return            0      0.00%      0.00% # Number of BTB mispredictions. No target found or target wrong. (Count)
system.cpu.branchPred.btb.mispredict::CallDirect           75      0.00%      0.00% # Number of BTB mispredictions. No target found or target wrong. (Count)
system.cpu.branchPred.btb.mispredict::CallIndirect            0      0.00%      0.00% # Number of BTB mispredictions. No target found or target wrong. (Count)
system.cpu.branchPred.btb.mispredict::DirectCond      1660460     99.99%    100.00% # Number of BTB mispredictions. No target found or target wrong. (Count)
system.cpu.branchPred.btb.mispredict::DirectUncond           33      0.00%    100.00% # Number of BTB mispredictions. No target found or target wrong. (Count)
system.cpu.branchPred.btb.mispredict::IndirectCond            0      0.00%    100.00% # Number of BTB mispredictions. No target found or target wrong. (Count)
system.cpu.branchPred.btb.mispredict::IndirectUncond            0      0.00%    100.00% # Number of BTB mispredictions. No target found or target wrong. (Count)
system.cpu.branchPred.btb.mispredict::total      1660568                       # Number of BTB mispredictions. No target found or target wrong. (Count)
system.cpu.branchPred.btb.power_state.pwrStateResidencyTicks::UNDEFINED 9026413655000                       # Cumulative time (in ticks) in various power states (Tick)
system.cpu.branchPred.indirectBranchPred.lookups          100                       # Number of lookups (Count)
system.cpu.branchPred.indirectBranchPred.hits           19                       # Number of hits of a tag (Count)
system.cpu.branchPred.indirectBranchPred.misses           81                       # Number of misses (Count)
system.cpu.branchPred.indirectBranchPred.targetRecords           36                       # Number of targets that where recorded/installed in the cache (Count)
system.cpu.branchPred.indirectBranchPred.indirectRecords          154                       # Number of indirect branches/calls recorded in the indirect hist (Count)
system.cpu.branchPred.indirectBranchPred.speculativeOverflows            0                       # Number of times more than the allowed capacity for speculative branches/calls where in flight and destroy the path history (Count)
system.cpu.branchPred.ras.pushes              5124394                       # Number of times a PC was pushed onto the RAS (Count)
system.cpu.branchPred.ras.pops                5124394                       # Number of times a PC was poped from the RAS (Count)
system.cpu.branchPred.ras.squashes             798546                       # Number of times the stack operation was squashed due to wrong speculation. (Count)
system.cpu.branchPred.ras.used                4325848                       # Number of times the RAS is the provider (Count)
system.cpu.branchPred.ras.correct             4325843                       # Number of times the RAS is the provider and the prediction is correct (Count)
system.cpu.branchPred.ras.incorrect                 5                       # Number of times the RAS is the provider and the prediction is wrong (Count)
system.cpu.commitStats0.numInsts            500000000                       # Number of instructions committed (thread level) (Count)
system.cpu.commitStats0.numOps              508652402                       # Number of ops (including micro ops) committed (thread level) (Count)
system.cpu.commitStats0.numInstsNotNOP              0                       # Number of instructions committed excluding NOPs or prefetches (Count)
system.cpu.commitStats0.numOpsNotNOP                0                       # Number of Ops (including micro ops) Simulated (Count)
system.cpu.commitStats0.cpi                 36.105655                       # CPI: cycles per instruction (thread level) ((Cycle/Count))
system.cpu.commitStats0.ipc                  0.027696                       # IPC: instructions per cycle (thread level) ((Count/Cycle))
system.cpu.commitStats0.numMemRefs                  0                       # Number of memory references committed (Count)
system.cpu.commitStats0.numFpInsts                  0                       # Number of float instructions (Count)
system.cpu.commitStats0.numIntInsts                 0                       # Number of integer instructions (Count)
system.cpu.commitStats0.numLoadInsts                0                       # Number of load instructions (Count)
system.cpu.commitStats0.numStoreInsts               0                       # Number of store instructions (Count)
system.cpu.commitStats0.numVecInsts                 0                       # Number of vector instructions (Count)
system.cpu.commitStats0.committedInstType::No_OpClass            0      0.00%      0.00% # Class of committed instruction. (Count)
system.cpu.commitStats0.committedInstType::IntAlu    282149208     55.47%     55.47% # Class of committed instruction. (Count)
system.cpu.commitStats0.committedInstType::IntMult     25080696      4.93%     60.40% # Class of committed instruction. (Count)
system.cpu.commitStats0.committedInstType::IntDiv            0      0.00%     60.40% # Class of committed instruction. (Count)
system.cpu.commitStats0.committedInstType::FloatAdd            0      0.00%     60.40% # Class of committed instruction. (Count)
system.cpu.commitStats0.committedInstType::FloatCmp            0      0.00%     60.40% # Class of committed instruction. (Count)
system.cpu.commitStats0.committedInstType::FloatCvt            0      0.00%     60.40% # Class of committed instruction. (Count)
system.cpu.commitStats0.committedInstType::FloatMult            0      0.00%     60.40% # Class of committed instruction. (Count)
system.cpu.commitStats0.committedInstType::FloatMultAcc            0      0.00%     60.40% # Class of committed instruction. (Count)
system.cpu.commitStats0.committedInstType::FloatDiv            0      0.00%     60.40% # Class of committed instruction. (Count)
system.cpu.commitStats0.committedInstType::FloatMisc            0      0.00%     60.40% # Class of committed instruction. (Count)
system.cpu.commitStats0.committedInstType::FloatSqrt            0      0.00%     60.40% # Class of committed instruction. (Count)
system.cpu.commitStats0.committedInstType::SimdAdd            0      0.00%     60.40% # Class of committed instruction. (Count)
system.cpu.commitStats0.committedInstType::SimdAddAcc            0      0.00%     60.40% # Class of committed instruction. (Count)
system.cpu.commitStats0.committedInstType::SimdAlu            0      0.00%     60.40% # Class of committed instruction. (Count)
system.cpu.commitStats0.committedInstType::SimdCmp            0      0.00%     60.40% # Class of committed instruction. (Count)
system.cpu.commitStats0.committedInstType::SimdCvt            0      0.00%     60.40% # Class of committed instruction. (Count)
system.cpu.commitStats0.committedInstType::SimdMisc            0      0.00%     60.40% # Class of committed instruction. (Count)
system.cpu.commitStats0.committedInstType::SimdMult            0      0.00%     60.40% # Class of committed instruction. (Count)
system.cpu.commitStats0.committedInstType::SimdMultAcc            0      0.00%     60.40% # Class of committed instruction. (Count)
system.cpu.commitStats0.committedInstType::SimdMatMultAcc            0      0.00%     60.40% # Class of committed instruction. (Count)
system.cpu.commitStats0.committedInstType::SimdShift            0      0.00%     60.40% # Class of committed instruction. (Count)
system.cpu.commitStats0.committedInstType::SimdShiftAcc            0      0.00%     60.40% # Class of committed instruction. (Count)
system.cpu.commitStats0.committedInstType::SimdDiv            0      0.00%     60.40% # Class of committed instruction. (Count)
system.cpu.commitStats0.committedInstType::SimdSqrt            0      0.00%     60.40% # Class of committed instruction. (Count)
system.cpu.commitStats0.committedInstType::SimdFloatAdd            0      0.00%     60.40% # Class of committed instruction. (Count)
system.cpu.commitStats0.committedInstType::SimdFloatAlu            0      0.00%     60.40% # Class of committed instruction. (Count)
system.cpu.commitStats0.committedInstType::SimdFloatCmp            0      0.00%     60.40% # Class of committed instruction. (Count)
system.cpu.commitStats0.committedInstType::SimdFloatCvt            0      0.00%     60.40% # Class of committed instruction. (Count)
system.cpu.commitStats0.committedInstType::SimdFloatDiv            0      0.00%     60.40% # Class of committed instruction. (Count)
system.cpu.commitStats0.committedInstType::SimdFloatMisc           17      0.00%     60.40% # Class of committed instruction. (Count)
system.cpu.commitStats0.committedInstType::SimdFloatMult            0      0.00%     60.40% # Class of committed instruction. (Count)
system.cpu.commitStats0.committedInstType::SimdFloatMultAcc            0      0.00%     60.40% # Class of committed instruction. (Count)
system.cpu.commitStats0.committedInstType::SimdFloatMatMultAcc            0      0.00%     60.40% # Class of committed instruction. (Count)
system.cpu.commitStats0.committedInstType::SimdFloatSqrt            0      0.00%     60.40% # Class of committed instruction. (Count)
system.cpu.commitStats0.committedInstType::SimdReduceAdd            0      0.00%     60.40% # Class of committed instruction. (Count)
system.cpu.commitStats0.committedInstType::SimdReduceAlu            0      0.00%     60.40% # Class of committed instruction. (Count)
system.cpu.commitStats0.committedInstType::SimdReduceCmp            0      0.00%     60.40% # Class of committed instruction. (Count)
system.cpu.commitStats0.committedInstType::SimdFloatReduceAdd            0      0.00%     60.40% # Class of committed instruction. (Count)
system.cpu.commitStats0.committedInstType::SimdFloatReduceCmp            0      0.00%     60.40% # Class of committed instruction. (Count)
system.cpu.commitStats0.committedInstType::SimdAes            0      0.00%     60.40% # Class of committed instruction. (Count)
system.cpu.commitStats0.committedInstType::SimdAesMix            0      0.00%     60.40% # Class of committed instruction. (Count)
system.cpu.commitStats0.committedInstType::SimdSha1Hash            0      0.00%     60.40% # Class of committed instruction. (Count)
system.cpu.commitStats0.committedInstType::SimdSha1Hash2            0      0.00%     60.40% # Class of committed instruction. (Count)
system.cpu.commitStats0.committedInstType::SimdSha256Hash            0      0.00%     60.40% # Class of committed instruction. (Count)
system.cpu.commitStats0.committedInstType::SimdSha256Hash2            0      0.00%     60.40% # Class of committed instruction. (Count)
system.cpu.commitStats0.committedInstType::SimdShaSigma2            0      0.00%     60.40% # Class of committed instruction. (Count)
system.cpu.commitStats0.committedInstType::SimdShaSigma3            0      0.00%     60.40% # Class of committed instruction. (Count)
system.cpu.commitStats0.committedInstType::SimdPredAlu            0      0.00%     60.40% # Class of committed instruction. (Count)
system.cpu.commitStats0.committedInstType::Matrix            0      0.00%     60.40% # Class of committed instruction. (Count)
system.cpu.commitStats0.committedInstType::MatrixMov            0      0.00%     60.40% # Class of committed instruction. (Count)
system.cpu.commitStats0.committedInstType::MatrixOP            0      0.00%     60.40% # Class of committed instruction. (Count)
system.cpu.commitStats0.committedInstType::MemRead    165678718     32.57%     92.97% # Class of committed instruction. (Count)
system.cpu.commitStats0.committedInstType::MemWrite     35743763      7.03%    100.00% # Class of committed instruction. (Count)
system.cpu.commitStats0.committedInstType::FloatMemRead            0      0.00%    100.00% # Class of committed instruction. (Count)
system.cpu.commitStats0.committedInstType::FloatMemWrite            0      0.00%    100.00% # Class of committed instruction. (Count)
system.cpu.commitStats0.committedInstType::IprAccess            0      0.00%    100.00% # Class of committed instruction. (Count)
system.cpu.commitStats0.committedInstType::InstPrefetch            0      0.00%    100.00% # Class of committed instruction. (Count)
system.cpu.commitStats0.committedInstType::SimdUnitStrideLoad            0      0.00%    100.00% # Class of committed instruction. (Count)
system.cpu.commitStats0.committedInstType::SimdUnitStrideStore            0      0.00%    100.00% # Class of committed instruction. (Count)
system.cpu.commitStats0.committedInstType::SimdUnitStrideMaskLoad            0      0.00%    100.00% # Class of committed instruction. (Count)
system.cpu.commitStats0.committedInstType::SimdUnitStrideMaskStore            0      0.00%    100.00% # Class of committed instruction. (Count)
system.cpu.commitStats0.committedInstType::SimdStridedLoad            0      0.00%    100.00% # Class of committed instruction. (Count)
system.cpu.commitStats0.committedInstType::SimdStridedStore            0      0.00%    100.00% # Class of committed instruction. (Count)
system.cpu.commitStats0.committedInstType::SimdIndexedLoad            0      0.00%    100.00% # Class of committed instruction. (Count)
system.cpu.commitStats0.committedInstType::SimdIndexedStore            0      0.00%    100.00% # Class of committed instruction. (Count)
system.cpu.commitStats0.committedInstType::SimdWholeRegisterLoad            0      0.00%    100.00% # Class of committed instruction. (Count)
system.cpu.commitStats0.committedInstType::SimdWholeRegisterStore            0      0.00%    100.00% # Class of committed instruction. (Count)
system.cpu.commitStats0.committedInstType::SimdUnitStrideFaultOnlyFirstLoad            0      0.00%    100.00% # Class of committed instruction. (Count)
system.cpu.commitStats0.committedInstType::SimdUnitStrideSegmentedLoad            0      0.00%    100.00% # Class of committed instruction. (Count)
system.cpu.commitStats0.committedInstType::SimdUnitStrideSegmentedStore            0      0.00%    100.00% # Class of committed instruction. (Count)
system.cpu.commitStats0.committedInstType::SimdExt            0      0.00%    100.00% # Class of committed instruction. (Count)
system.cpu.commitStats0.committedInstType::SimdFloatExt            0      0.00%    100.00% # Class of committed instruction. (Count)
system.cpu.commitStats0.committedInstType::SimdConfig            0      0.00%    100.00% # Class of committed instruction. (Count)
system.cpu.commitStats0.committedInstType::total    508652402                       # Class of committed instruction. (Count)
system.cpu.executeStats0.numInsts                   0                       # Number of executed instructions (Count)
system.cpu.executeStats0.numNop                     0                       # Number of nop insts executed (Count)
system.cpu.executeStats0.numBranches                0                       # Number of branches executed (Count)
system.cpu.executeStats0.numLoadInsts               0                       # Number of load instructions executed (Count)
system.cpu.executeStats0.numStoreInsts              0                       # Number of stores executed (Count)
system.cpu.executeStats0.instRate                   0                       # Inst execution rate ((Count/Cycle))
system.cpu.executeStats0.numFpRegWrites             0                       # Number of times the floating registers were written (Count)
system.cpu.executeStats0.numMemRefs                 0                       # Number of memory refs (Count)
system.cpu.executeStats0.numVecAluAccesses            0                       # Number of vector alu accesses (Count)
system.cpu.executeStats0.numDiscardedOps      9857282                       # Number of ops (including micro ops) which were discarded before commit (Count)
system.cpu.fetch2.intInstructions           324151781                       # Number of integer instructions successfully decoded (Count)
system.cpu.fetch2.fpInstructions                    0                       # Number of floating point instructions successfully decoded (Count)
system.cpu.fetch2.vecInstructions                   0                       # Number of SIMD instructions successfully decoded (Count)
system.cpu.fetch2.loadInstructions          193598828                       # Number of memory load instructions successfully decoded (Count)
system.cpu.fetch2.storeInstructions          37669378                       # Number of memory store instructions successfully decoded (Count)
system.cpu.fetch2.amoInstructions                   0                       # Number of memory atomic instructions successfully decoded (Count)
system.cpu.fetchStats0.numInsts                     0                       # Number of instructions fetched (thread level) (Count)
system.cpu.fetchStats0.numOps                       0                       # Number of ops (including micro ops) fetched (thread level) (Count)
system.cpu.fetchStats0.fetchRate                    0                       # Number of inst fetches per cycle ((Count/Cycle))
system.cpu.fetchStats0.branchRate                   0                       # Number of branch fetches per cycle (Ratio)
system.cpu.fetchStats0.numFetchSuspends             0                       # Number of times Execute suspended instruction fetching (Count)
system.cpu.mmu.alignFaults                          0                       # Number of MMU faults due to alignment restrictions (Count)
system.cpu.mmu.prefetchFaults                       0                       # Number of MMU faults due to prefetch (Count)
system.cpu.mmu.domainFaults                         0                       # Number of MMU faults due to domain restrictions (Count)
system.cpu.mmu.permsFaults                          0                       # Number of MMU faults due to permissions restrictions (Count)
system.cpu.mmu.dtb.readHits                         0                       # Read hits (Count)
system.cpu.mmu.dtb.readMisses                       0                       # Read misses (Count)
system.cpu.mmu.dtb.writeHits                        0                       # Write hits (Count)
system.cpu.mmu.dtb.writeMisses                      0                       # Write misses (Count)
system.cpu.mmu.dtb.inserts                          0                       # Number of times an entry is inserted into the TLB (Count)
system.cpu.mmu.dtb.flushTlb                         0                       # Number of times a TLB invalidation was requested (Count)
system.cpu.mmu.dtb.flushedEntries                   0                       # Number of entries that have been flushed from TLB (Count)
system.cpu.mmu.dtb.readAccesses                     0                       # Read accesses (Count)
system.cpu.mmu.dtb.writeAccesses                    0                       # Write accesses (Count)
system.cpu.mmu.dtb.hits                             0                       # Total TLB (inst and data) hits (Count)
system.cpu.mmu.dtb.misses                           0                       # Total TLB (inst and data) misses (Count)
system.cpu.mmu.dtb.accesses                         0                       # Total TLB (inst and data) accesses (Count)
system.cpu.mmu.dtb_walker.walks                     0                       # Table walker walks requested (Count)
system.cpu.mmu.dtb_walker.requestOrigin_Requested::Data            0                       # Table walker requests started/completed, data/inst (Count)
system.cpu.mmu.dtb_walker.requestOrigin_Requested::Inst            0                       # Table walker requests started/completed, data/inst (Count)
system.cpu.mmu.dtb_walker.requestOrigin_Requested::total            0                       # Table walker requests started/completed, data/inst (Count)
system.cpu.mmu.dtb_walker.requestOrigin_Completed::Data            0                       # Table walker requests started/completed, data/inst (Count)
system.cpu.mmu.dtb_walker.requestOrigin_Completed::Inst            0                       # Table walker requests started/completed, data/inst (Count)
system.cpu.mmu.dtb_walker.requestOrigin_Completed::total            0                       # Table walker requests started/completed, data/inst (Count)
system.cpu.mmu.dtb_walker.requestOrigin::total            0                       # Table walker requests started/completed, data/inst (Count)
system.cpu.mmu.dtb_walker.power_state.pwrStateResidencyTicks::UNDEFINED 9026413655000                       # Cumulative time (in ticks) in various power states (Tick)
system.cpu.mmu.itb.instHits                         0                       # Inst hits (Count)
system.cpu.mmu.itb.instMisses                       0                       # Inst misses (Count)
system.cpu.mmu.itb.inserts                          0                       # Number of times an entry is inserted into the TLB (Count)
system.cpu.mmu.itb.flushTlb                         0                       # Number of times a TLB invalidation was requested (Count)
system.cpu.mmu.itb.flushedEntries                   0                       # Number of entries that have been flushed from TLB (Count)
system.cpu.mmu.itb.instAccesses                     0                       # Inst accesses (Count)
system.cpu.mmu.itb.hits                             0                       # Total TLB (inst and data) hits (Count)
system.cpu.mmu.itb.misses                           0                       # Total TLB (inst and data) misses (Count)
system.cpu.mmu.itb.accesses                         0                       # Total TLB (inst and data) accesses (Count)
system.cpu.mmu.itb_walker.walks                     0                       # Table walker walks requested (Count)
system.cpu.mmu.itb_walker.requestOrigin_Requested::Data            0                       # Table walker requests started/completed, data/inst (Count)
system.cpu.mmu.itb_walker.requestOrigin_Requested::Inst            0                       # Table walker requests started/completed, data/inst (Count)
system.cpu.mmu.itb_walker.requestOrigin_Requested::total            0                       # Table walker requests started/completed, data/inst (Count)
system.cpu.mmu.itb_walker.requestOrigin_Completed::Data            0                       # Table walker requests started/completed, data/inst (Count)
system.cpu.mmu.itb_walker.requestOrigin_Completed::Inst            0                       # Table walker requests started/completed, data/inst (Count)
system.cpu.mmu.itb_walker.requestOrigin_Completed::total            0                       # Table walker requests started/completed, data/inst (Count)
system.cpu.mmu.itb_walker.requestOrigin::total            0                       # Table walker requests started/completed, data/inst (Count)
system.cpu.mmu.itb_walker.power_state.pwrStateResidencyTicks::UNDEFINED 9026413655000                       # Cumulative time (in ticks) in various power states (Tick)
system.cpu.mmu.l2_shared.instHits                   0                       # Inst hits (Count)
system.cpu.mmu.l2_shared.instMisses                 0                       # Inst misses (Count)
system.cpu.mmu.l2_shared.inserts                    0                       # Number of times an entry is inserted into the TLB (Count)
system.cpu.mmu.l2_shared.flushTlb                   0                       # Number of times a TLB invalidation was requested (Count)
system.cpu.mmu.l2_shared.flushedEntries             0                       # Number of entries that have been flushed from TLB (Count)
system.cpu.mmu.l2_shared.instAccesses               0                       # Inst accesses (Count)
system.cpu.mmu.l2_shared.hits                       0                       # Total TLB (inst and data) hits (Count)
system.cpu.mmu.l2_shared.misses                     0                       # Total TLB (inst and data) misses (Count)
system.cpu.mmu.l2_shared.accesses                   0                       # Total TLB (inst and data) accesses (Count)
system.cpu.mmu.stage2_dtb.readHits                  0                       # Read hits (Count)
system.cpu.mmu.stage2_dtb.readMisses                0                       # Read misses (Count)
system.cpu.mmu.stage2_dtb.writeHits                 0                       # Write hits (Count)
system.cpu.mmu.stage2_dtb.writeMisses               0                       # Write misses (Count)
system.cpu.mmu.stage2_dtb.inserts                   0                       # Number of times an entry is inserted into the TLB (Count)
system.cpu.mmu.stage2_dtb.flushTlb                  0                       # Number of times a TLB invalidation was requested (Count)
system.cpu.mmu.stage2_dtb.flushedEntries            0                       # Number of entries that have been flushed from TLB (Count)
system.cpu.mmu.stage2_dtb.readAccesses              0                       # Read accesses (Count)
system.cpu.mmu.stage2_dtb.writeAccesses             0                       # Write accesses (Count)
system.cpu.mmu.stage2_dtb.hits                      0                       # Total TLB (inst and data) hits (Count)
system.cpu.mmu.stage2_dtb.misses                    0                       # Total TLB (inst and data) misses (Count)
system.cpu.mmu.stage2_dtb.accesses                  0                       # Total TLB (inst and data) accesses (Count)
system.cpu.mmu.stage2_dtb_walker.walks              0                       # Table walker walks requested (Count)
system.cpu.mmu.stage2_dtb_walker.requestOrigin_Requested::Data            0                       # Table walker requests started/completed, data/inst (Count)
system.cpu.mmu.stage2_dtb_walker.requestOrigin_Requested::Inst            0                       # Table walker requests started/completed, data/inst (Count)
system.cpu.mmu.stage2_dtb_walker.requestOrigin_Requested::total            0                       # Table walker requests started/completed, data/inst (Count)
system.cpu.mmu.stage2_dtb_walker.requestOrigin_Completed::Data            0                       # Table walker requests started/completed, data/inst (Count)
system.cpu.mmu.stage2_dtb_walker.requestOrigin_Completed::Inst            0                       # Table walker requests started/completed, data/inst (Count)
system.cpu.mmu.stage2_dtb_walker.requestOrigin_Completed::total            0                       # Table walker requests started/completed, data/inst (Count)
system.cpu.mmu.stage2_dtb_walker.requestOrigin::total            0                       # Table walker requests started/completed, data/inst (Count)
system.cpu.mmu.stage2_dtb_walker.power_state.pwrStateResidencyTicks::UNDEFINED 9026413655000                       # Cumulative time (in ticks) in various power states (Tick)
system.cpu.mmu.stage2_itb.instHits                  0                       # Inst hits (Count)
system.cpu.mmu.stage2_itb.instMisses                0                       # Inst misses (Count)
system.cpu.mmu.stage2_itb.inserts                   0                       # Number of times an entry is inserted into the TLB (Count)
system.cpu.mmu.stage2_itb.flushTlb                  0                       # Number of times a TLB invalidation was requested (Count)
system.cpu.mmu.stage2_itb.flushedEntries            0                       # Number of entries that have been flushed from TLB (Count)
system.cpu.mmu.stage2_itb.instAccesses              0                       # Inst accesses (Count)
system.cpu.mmu.stage2_itb.hits                      0                       # Total TLB (inst and data) hits (Count)
system.cpu.mmu.stage2_itb.misses                    0                       # Total TLB (inst and data) misses (Count)
system.cpu.mmu.stage2_itb.accesses                  0                       # Total TLB (inst and data) accesses (Count)
system.cpu.mmu.stage2_itb_walker.walks              0                       # Table walker walks requested (Count)
system.cpu.mmu.stage2_itb_walker.requestOrigin_Requested::Data            0                       # Table walker requests started/completed, data/inst (Count)
system.cpu.mmu.stage2_itb_walker.requestOrigin_Requested::Inst            0                       # Table walker requests started/completed, data/inst (Count)
system.cpu.mmu.stage2_itb_walker.requestOrigin_Requested::total            0                       # Table walker requests started/completed, data/inst (Count)
system.cpu.mmu.stage2_itb_walker.requestOrigin_Completed::Data            0                       # Table walker requests started/completed, data/inst (Count)
system.cpu.mmu.stage2_itb_walker.requestOrigin_Completed::Inst            0                       # Table walker requests started/completed, data/inst (Count)
system.cpu.mmu.stage2_itb_walker.requestOrigin_Completed::total            0                       # Table walker requests started/completed, data/inst (Count)
system.cpu.mmu.stage2_itb_walker.requestOrigin::total            0                       # Table walker requests started/completed, data/inst (Count)
system.cpu.mmu.stage2_itb_walker.power_state.pwrStateResidencyTicks::UNDEFINED 9026413655000                       # Cumulative time (in ticks) in various power states (Tick)
system.cpu.power_state.pwrStateResidencyTicks::ON 9026413655000                       # Cumulative time (in ticks) in various power states (Tick)
system.cpu.thread_0.numInsts                500000000                       # Number of Instructions committed (Count)
system.cpu.thread_0.numOps                  508652402                       # Number of Ops committed (Count)
system.cpu.thread_0.numMemRefs                      0                       # Number of Memory References (Count)
system.cpu.workload.numSyscalls                     8                       # Number of system calls (Count)
system.mem_ctrl.avgPriority_cpu.inst::samples  82910021.00                       # Average QoS priority value for accepted requests (Count)
system.mem_ctrl.avgPriority_cpu.data::samples 145307009.00                       # Average QoS priority value for accepted requests (Count)
system.mem_ctrl.priorityMinLatency       0.000000016189                       # per QoS priority minimum request to response latency (Second)
system.mem_ctrl.priorityMaxLatency       0.000838731998                       # per QoS priority maximum request to response latency (Second)
system.mem_ctrl.numReadWriteTurnArounds        362988                       # Number of turnarounds from READ to WRITE (Count)
system.mem_ctrl.numWriteReadTurnArounds        362988                       # Number of turnarounds from WRITE to READ (Count)
system.mem_ctrl.numStayReadState            479927785                       # Number of times bus staying in READ state (Count)
system.mem_ctrl.numStayWriteState             5463033                       # Number of times bus staying in WRITE state (Count)
system.mem_ctrl.readReqs                    239033233                       # Number of read requests accepted (Count)
system.mem_ctrl.writeReqs                    35743731                       # Number of write requests accepted (Count)
system.mem_ctrl.readBursts                  239033233                       # Number of controller read bursts, including those serviced by the write queue (Count)
system.mem_ctrl.writeBursts                  35743731                       # Number of controller write bursts, including those merged in the write queue (Count)
system.mem_ctrl.servicedByWrQ                16639607                       # Number of controller read bursts serviced by the write queue (Count)
system.mem_ctrl.mergedWrBursts               29920327                       # Number of controller write bursts merged with an existing one (Count)
system.mem_ctrl.neitherReadNorWriteReqs             0                       # Number of requests that are neither read nor write (Count)
system.mem_ctrl.avgRdQLen                        1.59                       # Average read queue length when enqueuing ((Count/Tick))
system.mem_ctrl.avgWrQLen                       25.69                       # Average write queue length when enqueuing ((Count/Tick))
system.mem_ctrl.numRdRetry                          0                       # Number of times read queue was full causing retry (Count)
system.mem_ctrl.numWrRetry                          0                       # Number of times write queue was full causing retry (Count)
system.mem_ctrl.readPktSize::0                    106                       # Read request sizes (log2) (Count)
system.mem_ctrl.readPktSize::1                     33                       # Read request sizes (log2) (Count)
system.mem_ctrl.readPktSize::2              156122830                       # Read request sizes (log2) (Count)
system.mem_ctrl.readPktSize::3                    243                       # Read request sizes (log2) (Count)
system.mem_ctrl.readPktSize::4                      0                       # Read request sizes (log2) (Count)
system.mem_ctrl.readPktSize::5                      0                       # Read request sizes (log2) (Count)
system.mem_ctrl.readPktSize::6               82910021                       # Read request sizes (log2) (Count)
system.mem_ctrl.writePktSize::0                    21                       # Write request sizes (log2) (Count)
system.mem_ctrl.writePktSize::1                    10                       # Write request sizes (log2) (Count)
system.mem_ctrl.writePktSize::2              35743541                       # Write request sizes (log2) (Count)
system.mem_ctrl.writePktSize::3                   159                       # Write request sizes (log2) (Count)
system.mem_ctrl.writePktSize::4                     0                       # Write request sizes (log2) (Count)
system.mem_ctrl.writePktSize::5                     0                       # Write request sizes (log2) (Count)
system.mem_ctrl.writePktSize::6                     0                       # Write request sizes (log2) (Count)
system.mem_ctrl.rdQLenPdf::0                136164403                       # What read queue length does an incoming req see (Count)
system.mem_ctrl.rdQLenPdf::1                 81536593                       # What read queue length does an incoming req see (Count)
system.mem_ctrl.rdQLenPdf::2                  4692630                       # What read queue length does an incoming req see (Count)
system.mem_ctrl.rdQLenPdf::3                        0                       # What read queue length does an incoming req see (Count)
system.mem_ctrl.rdQLenPdf::4                        0                       # What read queue length does an incoming req see (Count)
system.mem_ctrl.rdQLenPdf::5                        0                       # What read queue length does an incoming req see (Count)
system.mem_ctrl.rdQLenPdf::6                        0                       # What read queue length does an incoming req see (Count)
system.mem_ctrl.rdQLenPdf::7                        0                       # What read queue length does an incoming req see (Count)
system.mem_ctrl.rdQLenPdf::8                        0                       # What read queue length does an incoming req see (Count)
system.mem_ctrl.rdQLenPdf::9                        0                       # What read queue length does an incoming req see (Count)
system.mem_ctrl.rdQLenPdf::10                       0                       # What read queue length does an incoming req see (Count)
system.mem_ctrl.rdQLenPdf::11                       0                       # What read queue length does an incoming req see (Count)
system.mem_ctrl.rdQLenPdf::12                       0                       # What read queue length does an incoming req see (Count)
system.mem_ctrl.rdQLenPdf::13                       0                       # What read queue length does an incoming req see (Count)
system.mem_ctrl.rdQLenPdf::14                       0                       # What read queue length does an incoming req see (Count)
system.mem_ctrl.rdQLenPdf::15                       0                       # What read queue length does an incoming req see (Count)
system.mem_ctrl.rdQLenPdf::16                       0                       # What read queue length does an incoming req see (Count)
system.mem_ctrl.rdQLenPdf::17                       0                       # What read queue length does an incoming req see (Count)
system.mem_ctrl.rdQLenPdf::18                       0                       # What read queue length does an incoming req see (Count)
system.mem_ctrl.rdQLenPdf::19                       0                       # What read queue length does an incoming req see (Count)
system.mem_ctrl.rdQLenPdf::20                       0                       # What read queue length does an incoming req see (Count)
system.mem_ctrl.rdQLenPdf::21                       0                       # What read queue length does an incoming req see (Count)
system.mem_ctrl.rdQLenPdf::22                       0                       # What read queue length does an incoming req see (Count)
system.mem_ctrl.rdQLenPdf::23                       0                       # What read queue length does an incoming req see (Count)
system.mem_ctrl.rdQLenPdf::24                       0                       # What read queue length does an incoming req see (Count)
system.mem_ctrl.rdQLenPdf::25                       0                       # What read queue length does an incoming req see (Count)
system.mem_ctrl.rdQLenPdf::26                       0                       # What read queue length does an incoming req see (Count)
system.mem_ctrl.rdQLenPdf::27                       0                       # What read queue length does an incoming req see (Count)
system.mem_ctrl.rdQLenPdf::28                       0                       # What read queue length does an incoming req see (Count)
system.mem_ctrl.rdQLenPdf::29                       0                       # What read queue length does an incoming req see (Count)
system.mem_ctrl.rdQLenPdf::30                       0                       # What read queue length does an incoming req see (Count)
system.mem_ctrl.rdQLenPdf::31                       0                       # What read queue length does an incoming req see (Count)
system.mem_ctrl.rdQLenPdf::32                       0                       # What read queue length does an incoming req see (Count)
system.mem_ctrl.rdQLenPdf::33                       0                       # What read queue length does an incoming req see (Count)
system.mem_ctrl.rdQLenPdf::34                       0                       # What read queue length does an incoming req see (Count)
system.mem_ctrl.rdQLenPdf::35                       0                       # What read queue length does an incoming req see (Count)
system.mem_ctrl.rdQLenPdf::36                       0                       # What read queue length does an incoming req see (Count)
system.mem_ctrl.rdQLenPdf::37                       0                       # What read queue length does an incoming req see (Count)
system.mem_ctrl.rdQLenPdf::38                       0                       # What read queue length does an incoming req see (Count)
system.mem_ctrl.rdQLenPdf::39                       0                       # What read queue length does an incoming req see (Count)
system.mem_ctrl.rdQLenPdf::40                       0                       # What read queue length does an incoming req see (Count)
system.mem_ctrl.rdQLenPdf::41                       0                       # What read queue length does an incoming req see (Count)
system.mem_ctrl.rdQLenPdf::42                       0                       # What read queue length does an incoming req see (Count)
system.mem_ctrl.rdQLenPdf::43                       0                       # What read queue length does an incoming req see (Count)
system.mem_ctrl.rdQLenPdf::44                       0                       # What read queue length does an incoming req see (Count)
system.mem_ctrl.rdQLenPdf::45                       0                       # What read queue length does an incoming req see (Count)
system.mem_ctrl.rdQLenPdf::46                       0                       # What read queue length does an incoming req see (Count)
system.mem_ctrl.rdQLenPdf::47                       0                       # What read queue length does an incoming req see (Count)
system.mem_ctrl.rdQLenPdf::48                       0                       # What read queue length does an incoming req see (Count)
system.mem_ctrl.rdQLenPdf::49                       0                       # What read queue length does an incoming req see (Count)
system.mem_ctrl.rdQLenPdf::50                       0                       # What read queue length does an incoming req see (Count)
system.mem_ctrl.rdQLenPdf::51                       0                       # What read queue length does an incoming req see (Count)
system.mem_ctrl.rdQLenPdf::52                       0                       # What read queue length does an incoming req see (Count)
system.mem_ctrl.rdQLenPdf::53                       0                       # What read queue length does an incoming req see (Count)
system.mem_ctrl.rdQLenPdf::54                       0                       # What read queue length does an incoming req see (Count)
system.mem_ctrl.rdQLenPdf::55                       0                       # What read queue length does an incoming req see (Count)
system.mem_ctrl.rdQLenPdf::56                       0                       # What read queue length does an incoming req see (Count)
system.mem_ctrl.rdQLenPdf::57                       0                       # What read queue length does an incoming req see (Count)
system.mem_ctrl.rdQLenPdf::58                       0                       # What read queue length does an incoming req see (Count)
system.mem_ctrl.rdQLenPdf::59                       0                       # What read queue length does an incoming req see (Count)
system.mem_ctrl.rdQLenPdf::60                       0                       # What read queue length does an incoming req see (Count)
system.mem_ctrl.rdQLenPdf::61                       0                       # What read queue length does an incoming req see (Count)
system.mem_ctrl.rdQLenPdf::62                       0                       # What read queue length does an incoming req see (Count)
system.mem_ctrl.rdQLenPdf::63                       0                       # What read queue length does an incoming req see (Count)
system.mem_ctrl.wrQLenPdf::0                        1                       # What write queue length does an incoming req see (Count)
system.mem_ctrl.wrQLenPdf::1                        1                       # What write queue length does an incoming req see (Count)
system.mem_ctrl.wrQLenPdf::2                        1                       # What write queue length does an incoming req see (Count)
system.mem_ctrl.wrQLenPdf::3                        1                       # What write queue length does an incoming req see (Count)
system.mem_ctrl.wrQLenPdf::4                        1                       # What write queue length does an incoming req see (Count)
system.mem_ctrl.wrQLenPdf::5                        1                       # What write queue length does an incoming req see (Count)
system.mem_ctrl.wrQLenPdf::6                        1                       # What write queue length does an incoming req see (Count)
system.mem_ctrl.wrQLenPdf::7                        1                       # What write queue length does an incoming req see (Count)
system.mem_ctrl.wrQLenPdf::8                        1                       # What write queue length does an incoming req see (Count)
system.mem_ctrl.wrQLenPdf::9                        1                       # What write queue length does an incoming req see (Count)
system.mem_ctrl.wrQLenPdf::10                       1                       # What write queue length does an incoming req see (Count)
system.mem_ctrl.wrQLenPdf::11                       1                       # What write queue length does an incoming req see (Count)
system.mem_ctrl.wrQLenPdf::12                       1                       # What write queue length does an incoming req see (Count)
system.mem_ctrl.wrQLenPdf::13                       1                       # What write queue length does an incoming req see (Count)
system.mem_ctrl.wrQLenPdf::14                       1                       # What write queue length does an incoming req see (Count)
system.mem_ctrl.wrQLenPdf::15                    7749                       # What write queue length does an incoming req see (Count)
system.mem_ctrl.wrQLenPdf::16                    7818                       # What write queue length does an incoming req see (Count)
system.mem_ctrl.wrQLenPdf::17                  362990                       # What write queue length does an incoming req see (Count)
system.mem_ctrl.wrQLenPdf::18                  362989                       # What write queue length does an incoming req see (Count)
system.mem_ctrl.wrQLenPdf::19                  362989                       # What write queue length does an incoming req see (Count)
system.mem_ctrl.wrQLenPdf::20                  362989                       # What write queue length does an incoming req see (Count)
system.mem_ctrl.wrQLenPdf::21                  362989                       # What write queue length does an incoming req see (Count)
system.mem_ctrl.wrQLenPdf::22                  362989                       # What write queue length does an incoming req see (Count)
system.mem_ctrl.wrQLenPdf::23                  362989                       # What write queue length does an incoming req see (Count)
system.mem_ctrl.wrQLenPdf::24                  362989                       # What write queue length does an incoming req see (Count)
system.mem_ctrl.wrQLenPdf::25                  362989                       # What write queue length does an incoming req see (Count)
system.mem_ctrl.wrQLenPdf::26                  362989                       # What write queue length does an incoming req see (Count)
system.mem_ctrl.wrQLenPdf::27                  362989                       # What write queue length does an incoming req see (Count)
system.mem_ctrl.wrQLenPdf::28                  362989                       # What write queue length does an incoming req see (Count)
system.mem_ctrl.wrQLenPdf::29                  362989                       # What write queue length does an incoming req see (Count)
system.mem_ctrl.wrQLenPdf::30                  362988                       # What write queue length does an incoming req see (Count)
system.mem_ctrl.wrQLenPdf::31                  362988                       # What write queue length does an incoming req see (Count)
system.mem_ctrl.wrQLenPdf::32                  362988                       # What write queue length does an incoming req see (Count)
system.mem_ctrl.wrQLenPdf::33                       0                       # What write queue length does an incoming req see (Count)
system.mem_ctrl.wrQLenPdf::34                       0                       # What write queue length does an incoming req see (Count)
system.mem_ctrl.wrQLenPdf::35                       0                       # What write queue length does an incoming req see (Count)
system.mem_ctrl.wrQLenPdf::36                       0                       # What write queue length does an incoming req see (Count)
system.mem_ctrl.wrQLenPdf::37                       0                       # What write queue length does an incoming req see (Count)
system.mem_ctrl.wrQLenPdf::38                       0                       # What write queue length does an incoming req see (Count)
system.mem_ctrl.wrQLenPdf::39                       0                       # What write queue length does an incoming req see (Count)
system.mem_ctrl.wrQLenPdf::40                       0                       # What write queue length does an incoming req see (Count)
system.mem_ctrl.wrQLenPdf::41                       0                       # What write queue length does an incoming req see (Count)
system.mem_ctrl.wrQLenPdf::42                       0                       # What write queue length does an incoming req see (Count)
system.mem_ctrl.wrQLenPdf::43                       0                       # What write queue length does an incoming req see (Count)
system.mem_ctrl.wrQLenPdf::44                       0                       # What write queue length does an incoming req see (Count)
system.mem_ctrl.wrQLenPdf::45                       0                       # What write queue length does an incoming req see (Count)
system.mem_ctrl.wrQLenPdf::46                       0                       # What write queue length does an incoming req see (Count)
system.mem_ctrl.wrQLenPdf::47                       0                       # What write queue length does an incoming req see (Count)
system.mem_ctrl.wrQLenPdf::48                       0                       # What write queue length does an incoming req see (Count)
system.mem_ctrl.wrQLenPdf::49                       0                       # What write queue length does an incoming req see (Count)
system.mem_ctrl.wrQLenPdf::50                       0                       # What write queue length does an incoming req see (Count)
system.mem_ctrl.wrQLenPdf::51                       0                       # What write queue length does an incoming req see (Count)
system.mem_ctrl.wrQLenPdf::52                       0                       # What write queue length does an incoming req see (Count)
system.mem_ctrl.wrQLenPdf::53                       0                       # What write queue length does an incoming req see (Count)
system.mem_ctrl.wrQLenPdf::54                       0                       # What write queue length does an incoming req see (Count)
system.mem_ctrl.wrQLenPdf::55                       0                       # What write queue length does an incoming req see (Count)
system.mem_ctrl.wrQLenPdf::56                       0                       # What write queue length does an incoming req see (Count)
system.mem_ctrl.wrQLenPdf::57                       0                       # What write queue length does an incoming req see (Count)
system.mem_ctrl.wrQLenPdf::58                       0                       # What write queue length does an incoming req see (Count)
system.mem_ctrl.wrQLenPdf::59                       0                       # What write queue length does an incoming req see (Count)
system.mem_ctrl.wrQLenPdf::60                       0                       # What write queue length does an incoming req see (Count)
system.mem_ctrl.wrQLenPdf::61                       0                       # What write queue length does an incoming req see (Count)
system.mem_ctrl.wrQLenPdf::62                       0                       # What write queue length does an incoming req see (Count)
system.mem_ctrl.wrQLenPdf::63                       0                       # What write queue length does an incoming req see (Count)
system.mem_ctrl.rdPerTurnAround::samples       362988                       # Reads before turning the bus around for writes (Count)
system.mem_ctrl.rdPerTurnAround::mean      612.673703                       # Reads before turning the bus around for writes (Count)
system.mem_ctrl.rdPerTurnAround::gmean     577.127051                       # Reads before turning the bus around for writes (Count)
system.mem_ctrl.rdPerTurnAround::stdev     223.267709                       # Reads before turning the bus around for writes (Count)
system.mem_ctrl.rdPerTurnAround::192-255            1      0.00%      0.00% # Reads before turning the bus around for writes (Count)
system.mem_ctrl.rdPerTurnAround::256-319         3455      0.95%      0.95% # Reads before turning the bus around for writes (Count)
system.mem_ctrl.rdPerTurnAround::320-383        38573     10.63%     11.58% # Reads before turning the bus around for writes (Count)
system.mem_ctrl.rdPerTurnAround::384-447        56020     15.43%     27.01% # Reads before turning the bus around for writes (Count)
system.mem_ctrl.rdPerTurnAround::448-511        49832     13.73%     40.74% # Reads before turning the bus around for writes (Count)
system.mem_ctrl.rdPerTurnAround::512-575        43328     11.94%     52.68% # Reads before turning the bus around for writes (Count)
system.mem_ctrl.rdPerTurnAround::576-639        37160     10.24%     62.91% # Reads before turning the bus around for writes (Count)
system.mem_ctrl.rdPerTurnAround::640-703        30884      8.51%     71.42% # Reads before turning the bus around for writes (Count)
system.mem_ctrl.rdPerTurnAround::704-767        25171      6.93%     78.36% # Reads before turning the bus around for writes (Count)
system.mem_ctrl.rdPerTurnAround::768-831        20050      5.52%     83.88% # Reads before turning the bus around for writes (Count)
system.mem_ctrl.rdPerTurnAround::832-895        15729      4.33%     88.21% # Reads before turning the bus around for writes (Count)
system.mem_ctrl.rdPerTurnAround::896-959        12237      3.37%     91.58% # Reads before turning the bus around for writes (Count)
system.mem_ctrl.rdPerTurnAround::960-1023         9194      2.53%     94.12% # Reads before turning the bus around for writes (Count)
system.mem_ctrl.rdPerTurnAround::1024-1087         6740      1.86%     95.97% # Reads before turning the bus around for writes (Count)
system.mem_ctrl.rdPerTurnAround::1088-1151         4814      1.33%     97.30% # Reads before turning the bus around for writes (Count)
system.mem_ctrl.rdPerTurnAround::1152-1215         3426      0.94%     98.24% # Reads before turning the bus around for writes (Count)
system.mem_ctrl.rdPerTurnAround::1216-1279         2305      0.64%     98.88% # Reads before turning the bus around for writes (Count)
system.mem_ctrl.rdPerTurnAround::1280-1343         1503      0.41%     99.29% # Reads before turning the bus around for writes (Count)
system.mem_ctrl.rdPerTurnAround::1344-1407          972      0.27%     99.56% # Reads before turning the bus around for writes (Count)
system.mem_ctrl.rdPerTurnAround::1408-1471          666      0.18%     99.74% # Reads before turning the bus around for writes (Count)
system.mem_ctrl.rdPerTurnAround::1472-1535          375      0.10%     99.85% # Reads before turning the bus around for writes (Count)
system.mem_ctrl.rdPerTurnAround::1536-1599          242      0.07%     99.91% # Reads before turning the bus around for writes (Count)
system.mem_ctrl.rdPerTurnAround::1600-1663          137      0.04%     99.95% # Reads before turning the bus around for writes (Count)
system.mem_ctrl.rdPerTurnAround::1664-1727           74      0.02%     99.97% # Reads before turning the bus around for writes (Count)
system.mem_ctrl.rdPerTurnAround::1728-1791           44      0.01%     99.98% # Reads before turning the bus around for writes (Count)
system.mem_ctrl.rdPerTurnAround::1792-1855           26      0.01%     99.99% # Reads before turning the bus around for writes (Count)
system.mem_ctrl.rdPerTurnAround::1856-1919           15      0.00%    100.00% # Reads before turning the bus around for writes (Count)
system.mem_ctrl.rdPerTurnAround::1920-1983            9      0.00%    100.00% # Reads before turning the bus around for writes (Count)
system.mem_ctrl.rdPerTurnAround::1984-2047            4      0.00%    100.00% # Reads before turning the bus around for writes (Count)
system.mem_ctrl.rdPerTurnAround::2112-2175            1      0.00%    100.00% # Reads before turning the bus around for writes (Count)
system.mem_ctrl.rdPerTurnAround::2176-2239            1      0.00%    100.00% # Reads before turning the bus around for writes (Count)
system.mem_ctrl.rdPerTurnAround::total         362988                       # Reads before turning the bus around for writes (Count)
system.mem_ctrl.wrPerTurnAround::samples       362988                       # Writes before turning the bus around for reads (Count)
system.mem_ctrl.wrPerTurnAround::mean       16.042883                       # Writes before turning the bus around for reads (Count)
system.mem_ctrl.wrPerTurnAround::gmean      16.040463                       # Writes before turning the bus around for reads (Count)
system.mem_ctrl.wrPerTurnAround::stdev       0.289388                       # Writes before turning the bus around for reads (Count)
system.mem_ctrl.wrPerTurnAround::16            355171     97.85%     97.85% # Writes before turning the bus around for reads (Count)
system.mem_ctrl.wrPerTurnAround::17                69      0.02%     97.87% # Writes before turning the bus around for reads (Count)
system.mem_ctrl.wrPerTurnAround::18              7747      2.13%    100.00% # Writes before turning the bus around for reads (Count)
system.mem_ctrl.wrPerTurnAround::19                 1      0.00%    100.00% # Writes before turning the bus around for reads (Count)
system.mem_ctrl.wrPerTurnAround::total         362988                       # Writes before turning the bus around for reads (Count)
system.mem_ctrl.bytesReadWrQ               1064934848                       # Total number of bytes read from write queue (Byte)
system.mem_ctrl.bytesReadSys               5930734780                       # Total read bytes from the system interface side (Byte)
system.mem_ctrl.bytesWrittenSys             142975477                       # Total written bytes from the system interface side (Byte)
system.mem_ctrl.avgRdBWSys               657042210.41485155                       # Average system read bandwidth in Byte/s ((Byte/Second))
system.mem_ctrl.avgWrBWSys               15839677.02619097                       # Average system write bandwidth in Byte/s ((Byte/Second))
system.mem_ctrl.totGap                   9026413654500                       # Total gap between requests (Tick)
system.mem_ctrl.avgGap                       32849.97                       # Average gap between requests ((Tick/Count))
system.mem_ctrl.requestorReadBytes::cpu.inst   5306241344                       # Per-requestor bytes read from memory (Byte)
system.mem_ctrl.requestorReadBytes::cpu.data    557935008                       # Per-requestor bytes read from memory (Byte)
system.mem_ctrl.requestorWriteBytes::cpu.data     23293498                       # Per-requestor bytes write to memory (Byte)
system.mem_ctrl.requestorReadRate::cpu.inst 587857098.822489023209                       # Per-requestor bytes read from memory rate ((Byte/Second))
system.mem_ctrl.requestorReadRate::cpu.data 61811371.528596311808                       # Per-requestor bytes read from memory rate ((Byte/Second))
system.mem_ctrl.requestorWriteRate::cpu.data 2580592.790260286070                       # Per-requestor bytes write to memory rate ((Byte/Second))
system.mem_ctrl.requestorReadAccesses::cpu.inst     82910021                       # Per-requestor read serviced memory accesses (Count)
system.mem_ctrl.requestorReadAccesses::cpu.data    156123212                       # Per-requestor read serviced memory accesses (Count)
system.mem_ctrl.requestorWriteAccesses::cpu.data     35743731                       # Per-requestor write serviced memory accesses (Count)
system.mem_ctrl.requestorReadTotalLat::cpu.inst 3109534267591                       # Per-requestor read total memory access latency (Tick)
system.mem_ctrl.requestorReadTotalLat::cpu.data 5324016156997                       # Per-requestor read total memory access latency (Tick)
system.mem_ctrl.requestorWriteTotalLat::cpu.data 226405875428528                       # Per-requestor write total memory access latency (Tick)
system.mem_ctrl.requestorReadAvgLat::cpu.inst     37504.93                       # Per-requestor read average memory access latency ((Tick/Count))
system.mem_ctrl.requestorReadAvgLat::cpu.data     34101.37                       # Per-requestor read average memory access latency ((Tick/Count))
system.mem_ctrl.requestorWriteAvgLat::cpu.data   6334142.21                       # Per-requestor write average memory access latency ((Tick/Count))
[...]
system.mem_ctrl.dram.bwTotal::cpu.inst      587857099                       # Total bandwidth to/from this memory ((Byte/Second))
system.mem_ctrl.dram.bwTotal::cpu.data       85024788                       # Total bandwidth to/from this memory ((Byte/Second))
system.mem_ctrl.dram.bwTotal::total         672881887                       # Total bandwidth to/from this memory ((Byte/Second))
system.mem_ctrl.dram.readBursts             222393626                       # Number of DRAM read bursts (Count)
system.mem_ctrl.dram.writeBursts              5823374                       # Number of DRAM write bursts (Count)
system.mem_ctrl.dram.perBankRdBursts::0       1170527                       # Per bank write bursts (Count)
system.mem_ctrl.dram.perBankRdBursts::1      84076180                       # Per bank write bursts (Count)
system.mem_ctrl.dram.perBankRdBursts::2       1171203                       # Per bank write bursts (Count)
system.mem_ctrl.dram.perBankRdBursts::3       1172491                       # Per bank write bursts (Count)
system.mem_ctrl.dram.perBankRdBursts::4       1169288                       # Per bank write bursts (Count)
system.mem_ctrl.dram.perBankRdBursts::5       1170409                       # Per bank write bursts (Count)
system.mem_ctrl.dram.perBankRdBursts::6       1171535                       # Per bank write bursts (Count)
system.mem_ctrl.dram.perBankRdBursts::7       1170591                       # Per bank write bursts (Count)
system.mem_ctrl.dram.perBankRdBursts::8       4783973                       # Per bank write bursts (Count)
system.mem_ctrl.dram.perBankRdBursts::9       1168406                       # Per bank write bursts (Count)
system.mem_ctrl.dram.perBankRdBursts::10      1170593                       # Per bank write bursts (Count)
system.mem_ctrl.dram.perBankRdBursts::11      1171846                       # Per bank write bursts (Count)
system.mem_ctrl.dram.perBankRdBursts::12      1166526                       # Per bank write bursts (Count)
system.mem_ctrl.dram.perBankRdBursts::13      1169393                       # Per bank write bursts (Count)
system.mem_ctrl.dram.perBankRdBursts::14      1168148                       # Per bank write bursts (Count)
system.mem_ctrl.dram.perBankRdBursts::15     98721074                       # Per bank write bursts (Count)
system.mem_ctrl.dram.perBankRdBursts::16      1174187                       # Per bank write bursts (Count)
system.mem_ctrl.dram.perBankRdBursts::17      1171709                       # Per bank write bursts (Count)
system.mem_ctrl.dram.perBankRdBursts::18      1172737                       # Per bank write bursts (Count)
system.mem_ctrl.dram.perBankRdBursts::19      1174097                       # Per bank write bursts (Count)
system.mem_ctrl.dram.perBankRdBursts::20      1170263                       # Per bank write bursts (Count)
system.mem_ctrl.dram.perBankRdBursts::21      1172065                       # Per bank write bursts (Count)
system.mem_ctrl.dram.perBankRdBursts::22      1168124                       # Per bank write bursts (Count)
system.mem_ctrl.dram.perBankRdBursts::23      2039274                       # Per bank write bursts (Count)
system.mem_ctrl.dram.perBankRdBursts::24      1172053                       # Per bank write bursts (Count)
system.mem_ctrl.dram.perBankRdBursts::25      1171026                       # Per bank write bursts (Count)
system.mem_ctrl.dram.perBankRdBursts::26      1169416                       # Per bank write bursts (Count)
system.mem_ctrl.dram.perBankRdBursts::27      1170264                       # Per bank write bursts (Count)
system.mem_ctrl.dram.perBankRdBursts::28      1169759                       # Per bank write bursts (Count)
system.mem_ctrl.dram.perBankRdBursts::29      1168069                       # Per bank write bursts (Count)
system.mem_ctrl.dram.perBankRdBursts::30      1167974                       # Per bank write bursts (Count)
system.mem_ctrl.dram.perBankRdBursts::31      1170426                       # Per bank write bursts (Count)
system.mem_ctrl.dram.perBankWrBursts::0        169860                       # Per bank write bursts (Count)
system.mem_ctrl.dram.perBankWrBursts::1        169517                       # Per bank write bursts (Count)
system.mem_ctrl.dram.perBankWrBursts::2        170370                       # Per bank write bursts (Count)
system.mem_ctrl.dram.perBankWrBursts::3        170601                       # Per bank write bursts (Count)
system.mem_ctrl.dram.perBankWrBursts::4        170285                       # Per bank write bursts (Count)
system.mem_ctrl.dram.perBankWrBursts::5        170428                       # Per bank write bursts (Count)
system.mem_ctrl.dram.perBankWrBursts::6        170459                       # Per bank write bursts (Count)
system.mem_ctrl.dram.perBankWrBursts::7        170223                       # Per bank write bursts (Count)
system.mem_ctrl.dram.perBankWrBursts::8        360593                       # Per bank write bursts (Count)
system.mem_ctrl.dram.perBankWrBursts::9        170772                       # Per bank write bursts (Count)
system.mem_ctrl.dram.perBankWrBursts::10       170049                       # Per bank write bursts (Count)
system.mem_ctrl.dram.perBankWrBursts::11       170331                       # Per bank write bursts (Count)
system.mem_ctrl.dram.perBankWrBursts::12       169989                       # Per bank write bursts (Count)
system.mem_ctrl.dram.perBankWrBursts::13       170241                       # Per bank write bursts (Count)
system.mem_ctrl.dram.perBankWrBursts::14       170144                       # Per bank write bursts (Count)
system.mem_ctrl.dram.perBankWrBursts::15       352676                       # Per bank write bursts (Count)
system.mem_ctrl.dram.perBankWrBursts::16       170282                       # Per bank write bursts (Count)
system.mem_ctrl.dram.perBankWrBursts::17       170155                       # Per bank write bursts (Count)
system.mem_ctrl.dram.perBankWrBursts::18       170633                       # Per bank write bursts (Count)
system.mem_ctrl.dram.perBankWrBursts::19       170560                       # Per bank write bursts (Count)
system.mem_ctrl.dram.perBankWrBursts::20       170323                       # Per bank write bursts (Count)
system.mem_ctrl.dram.perBankWrBursts::21       170200                       # Per bank write bursts (Count)
system.mem_ctrl.dram.perBankWrBursts::22       169920                       # Per bank write bursts (Count)
system.mem_ctrl.dram.perBankWrBursts::23       170821                       # Per bank write bursts (Count)
system.mem_ctrl.dram.perBankWrBursts::24       170737                       # Per bank write bursts (Count)
system.mem_ctrl.dram.perBankWrBursts::25       170239                       # Per bank write bursts (Count)
system.mem_ctrl.dram.perBankWrBursts::26       170499                       # Per bank write bursts (Count)
system.mem_ctrl.dram.perBankWrBursts::27       170213                       # Per bank write bursts (Count)
system.mem_ctrl.dram.perBankWrBursts::28       170515                       # Per bank write bursts (Count)
system.mem_ctrl.dram.perBankWrBursts::29       170605                       # Per bank write bursts (Count)
system.mem_ctrl.dram.perBankWrBursts::30       170809                       # Per bank write bursts (Count)
system.mem_ctrl.dram.perBankWrBursts::31       170325                       # Per bank write bursts (Count)
system.mem_ctrl.dram.totQLat             4833220013274                       # Total ticks spent queuing (Tick)
system.mem_ctrl.dram.totBusLat           423437463904                       # Total ticks spent in databus transfers (Tick)
system.mem_ctrl.dram.totMemAccLat        8433550424588                       # Total ticks spent from burst creation until serviced by the DRAM (Tick)
system.mem_ctrl.dram.avgQLat                 21732.73                       # Average queueing delay per DRAM burst ((Tick/Count))
system.mem_ctrl.dram.avgBusLat                1904.00                       # Average bus latency per DRAM burst ((Tick/Count))
system.mem_ctrl.dram.avgMemAccLat            37921.73                       # Average memory access latency per DRAM burst ((Tick/Count))
system.mem_ctrl.dram.readRowHits               124025                       # Number of row buffer hits during reads (Count)
system.mem_ctrl.dram.writeRowHits               90737                       # Number of row buffer hits during writes (Count)
system.mem_ctrl.dram.readRowHitRate              0.06                       # Row buffer hit rate for reads (Ratio)
system.mem_ctrl.dram.writeRowHitRate             1.56                       # Row buffer hit rate for writes (Ratio)
system.mem_ctrl.dram.bytesPerActivate::samples    228002238                       # Bytes accessed per row activation (Byte)
system.mem_ctrl.dram.bytesPerActivate::mean    64.060283                       # Bytes accessed per row activation (Byte)
system.mem_ctrl.dram.bytesPerActivate::gmean    64.041433                       # Bytes accessed per row activation (Byte)
system.mem_ctrl.dram.bytesPerActivate::stdev     2.005236                       # Bytes accessed per row activation (Byte)
system.mem_ctrl.dram.bytesPerActivate::64-127    227791951     99.91%     99.91% # Bytes accessed per row activation (Byte)
system.mem_ctrl.dram.bytesPerActivate::128-191       205942      0.09%    100.00% # Bytes accessed per row activation (Byte)
system.mem_ctrl.dram.bytesPerActivate::192-255         4231      0.00%    100.00% # Bytes accessed per row activation (Byte)
system.mem_ctrl.dram.bytesPerActivate::256-319          106      0.00%    100.00% # Bytes accessed per row activation (Byte)
system.mem_ctrl.dram.bytesPerActivate::320-383            3      0.00%    100.00% # Bytes accessed per row activation (Byte)
system.mem_ctrl.dram.bytesPerActivate::384-447            3      0.00%    100.00% # Bytes accessed per row activation (Byte)
system.mem_ctrl.dram.bytesPerActivate::448-511            1      0.00%    100.00% # Bytes accessed per row activation (Byte)
system.mem_ctrl.dram.bytesPerActivate::512-575            1      0.00%    100.00% # Bytes accessed per row activation (Byte)
system.mem_ctrl.dram.bytesPerActivate::total    228002238                       # Bytes accessed per row activation (Byte)
system.mem_ctrl.dram.dramBytesRead        14233192064                       # Total bytes read (Byte)
system.mem_ctrl.dram.dramBytesWritten       372695936                       # Total bytes written (Byte)
system.mem_ctrl.dram.avgRdBW              1576.838001                       # Average DRAM read bandwidth in MiBytes/s ((Byte/Second))
system.mem_ctrl.dram.avgWrBW                41.289481                       # Average DRAM write bandwidth in MiBytes/s ((Byte/Second))
system.mem_ctrl.dram.peakBW                  33613.00                       # Theoretical peak bandwidth in MiByte/s ((Byte/Second))
system.mem_ctrl.dram.busUtil                     4.81                       # Data bus utilization in percentage (Ratio)
system.mem_ctrl.dram.busUtilRead                 4.69                       # Data bus utilization in percentage for reads (Ratio)
system.mem_ctrl.dram.busUtilWrite                0.12                       # Data bus utilization in percentage for writes (Ratio)
system.mem_ctrl.dram.pageHitRate                 0.09                       # Row buffer hit rate, read and write combined (Ratio)
system.mem_ctrl.dram.power_state.pwrStateResidencyTicks::UNDEFINED 9026413655000                       # Cumulative time (in ticks) in various power states (Tick)
system.mem_ctrl.dram.rank0.actEnergy     -644662647807.561157                       # Energy for activate commands per rank (pJ) (Joule)
system.mem_ctrl.dram.rank0.preEnergy     429775096656.200073                       # Energy for precharge commands per rank (pJ) (Joule)
system.mem_ctrl.dram.rank0.readEnergy    722892435123.000977                       # Energy for read commands per rank (pJ) (Joule)
system.mem_ctrl.dram.rank0.writeEnergy   16440847633.469316                       # Energy for write commands per rank (pJ) (Joule)
system.mem_ctrl.dram.rank0.refreshEnergy 407220140325.792358                       # Energy for refresh commands per rank (pJ) (Joule)
system.mem_ctrl.dram.rank0.actBackEnergy 3632533985571.006836                       # Energy for active background per rank (pJ) (Joule)
system.mem_ctrl.dram.rank0.preBackEnergy 1300419524582.578369                       # Energy for precharge background per rank (pJ) (Joule)
system.mem_ctrl.dram.rank0.actPowerDownEnergy            0                       # Energy for active power-down per rank (pJ) (Joule)
system.mem_ctrl.dram.rank0.prePowerDownEnergy            0                       # Energy for precharge power-down per rank (pJ) (Joule)
system.mem_ctrl.dram.rank0.selfRefreshEnergy            0                       # Energy for self refresh per rank (pJ) (Joule)
system.mem_ctrl.dram.rank0.totalEnergy   5864619382064.025391                       # Total energy per rank (pJ) (Joule)
system.mem_ctrl.dram.rank0.averagePower    649.717552                       # Core power per rank (mW) (Watt)
system.mem_ctrl.dram.rank0.totalIdleTime            0                       # Total Idle time Per DRAM Rank (Tick)
system.mem_ctrl.dram.rank0.pwrStateTime::IDLE 1216660877937                       # Time in different power states (Tick)
system.mem_ctrl.dram.rank0.pwrStateTime::REF 685277035000                       # Time in different power states (Tick)
system.mem_ctrl.dram.rank0.pwrStateTime::SREF            0                       # Time in different power states (Tick)
system.mem_ctrl.dram.rank0.pwrStateTime::PRE_PDN            0                       # Time in different power states (Tick)
system.mem_ctrl.dram.rank0.pwrStateTime::ACT 7124475742063                       # Time in different power states (Tick)
system.mem_ctrl.dram.rank0.pwrStateTime::ACT_PDN            0                       # Time in different power states (Tick)
system.mem_ctrl.power_state.pwrStateResidencyTicks::UNDEFINED 9026413655000                       # Cumulative time (in ticks) in various power states (Tick)
system.membus.transDist::ReadReq            239033200                       # Transaction distribution (Count)
system.membus.transDist::ReadResp           239033203                       # Transaction distribution (Count)
system.membus.transDist::WriteReq            35743727                       # Transaction distribution (Count)
system.membus.transDist::WriteResp           35743726                       # Transaction distribution (Count)
system.membus.transDist::SoftPFReq                 29                       # Transaction distribution (Count)
system.membus.transDist::SoftPFResp                29                       # Transaction distribution (Count)
system.membus.transDist::LoadLockedReq              4                       # Transaction distribution (Count)
system.membus.transDist::StoreCondReq               4                       # Transaction distribution (Count)
system.membus.transDist::StoreCondResp              4                       # Transaction distribution (Count)
system.membus.pktCount_system.cpu.fetch1.icache_port::system.mem_ctrl.port    165820042                       # Packet count per connected requestor and responder (Count)
system.membus.pktCount_system.cpu.execute.dcache_port::system.mem_ctrl.port    383733884                       # Packet count per connected requestor and responder (Count)
system.membus.pktCount::total               549553926                       # Packet count per connected requestor and responder (Count)
system.membus.pktSize_system.cpu.fetch1.icache_port::system.mem_ctrl.port   5306241344                       # Cumulative packet size per connected requestor and responder (Byte)
system.membus.pktSize_system.cpu.execute.dcache_port::system.mem_ctrl.port    767468909                       # Cumulative packet size per connected requestor and responder (Byte)
system.membus.pktSize::total               6073710253                       # Cumulative packet size per connected requestor and responder (Byte)
system.membus.snoops                                0                       # Total snoops (Count)
system.membus.snoopTraffic                          0                       # Total snoop traffic (Byte)
system.membus.snoopFanout::samples          274776964                       # Request fanout histogram (Count)
system.membus.snoopFanout::mean                     0                       # Request fanout histogram (Count)
system.membus.snoopFanout::stdev                    0                       # Request fanout histogram (Count)
system.membus.snoopFanout::underflows               0      0.00%      0.00% # Request fanout histogram (Count)
system.membus.snoopFanout::0                274776964    100.00%    100.00% # Request fanout histogram (Count)
system.membus.snoopFanout::1                        0      0.00%    100.00% # Request fanout histogram (Count)
system.membus.snoopFanout::overflows                0      0.00%    100.00% # Request fanout histogram (Count)
system.membus.snoopFanout::min_value                0                       # Request fanout histogram (Count)
system.membus.snoopFanout::max_value                0                       # Request fanout histogram (Count)
system.membus.snoopFanout::total            274776964                       # Request fanout histogram (Count)
system.membus.power_state.pwrStateResidencyTicks::UNDEFINED 9026413655000                       # Cumulative time (in ticks) in various power states (Tick)
system.membus.reqLayer0.occupancy        155260347500                       # Layer occupancy (ticks) (Tick)
system.membus.reqLayer0.utilization               0.0                       # Layer utilization (Ratio)
system.membus.respLayer0.occupancy       212522262409                       # Layer occupancy (ticks) (Tick)
system.membus.respLayer0.utilization              0.0                       # Layer utilization (Ratio)
system.membus.respLayer1.occupancy       180684671977                       # Layer occupancy (ticks) (Tick)
system.membus.respLayer1.utilization              0.0                       # Layer utilization (Ratio)
system.membus.snoop_filter.totRequests              0                       # Total number of requests made to the snoop filter. (Count)
system.membus.snoop_filter.hitSingleRequests            0                       # Number of requests hitting in the snoop filter with a single holder of the requested data. (Count)
system.membus.snoop_filter.hitMultiRequests            0                       # Number of requests hitting in the snoop filter with multiple (>1) holders of the requested data. (Count)
system.membus.snoop_filter.totSnoops                0                       # Total number of snoops made to the snoop filter. (Count)
system.membus.snoop_filter.hitSingleSnoops            0                       # Number of snoops hitting in the snoop filter with a single holder of the requested data. (Count)
system.membus.snoop_filter.hitMultiSnoops            0                       # Number of snoops hitting in the snoop filter with multiple (>1) holders of the requested data. (Count)
system.workload.inst.arm                            0                       # number of arm instructions executed (Count)
system.workload.inst.quiesce                        0                       # number of quiesce instructions executed (Count)
system.cpu.idleCycles                     16895525976                       # Total number of cycles that the object has spent stopped (Unspecified)
system.cpu.tickCycles                      1157301334                       # Number of cycles that the object actually ticked (Unspecified)

---------- End Simulation Statistics   ----------
