
---------- Begin Simulation Statistics ----------
simSeconds                                   7.164031                       # Number of seconds simulated (Second)
simTicks                                 7164030532500                       # Number of ticks simulated (Tick)
finalTick                                7164030532500                       # Number of ticks from beginning of simulation (restored from checkpoints and never reset) (Tick)
simFreq                                  1000000000000                       # The number of ticks per simulated second ((Tick/Second))
hostSeconds                                   1510.81                       # Real time elapsed on the host (Second)
hostTickRate                               4741835627                       # The number of ticks simulated per host second (ticks/s) ((Tick/Second))
hostMemory                                    2505824                       # Number of bytes of host memory used (Byte)
simInsts                                    500000000                       # Number of instructions simulated (Count)
simOps                                      508652402                       # Number of ops (including micro ops) simulated (Count)
hostInstRate                                   330947                       # Simulator instruction rate (inst/s) ((Count/Second))
hostOpRate                                     336674                       # Simulator op (including micro ops) rate (op/s) ((Count/Second))
system.clk_domain.clock                           500                       # Clock period in ticks (Tick)
system.clk_domain.voltage_domain.voltage            1                       # Voltage in Volts (Volt)
system.cpu.numCycles                      14328061065                       # Number of cpu cycles simulated (Cycle)
system.cpu.cpi                              28.656122                       # CPI: cycles per instruction (core level) ((Cycle/Count))
system.cpu.ipc                               0.034897                       # IPC: instructions per cycle (core level) ((Count/Cycle))
system.cpu.numWorkItemsStarted                      0                       # Number of work items this cpu started (Count)
system.cpu.numWorkItemsCompleted                    0                       # Number of work items this cpu completed (Count)
system.cpu.branchPred.lookups_0::NoBranch           15      0.00%      0.00% # Number of BP lookups (Count)
system.cpu.branchPred.lookups_0::Return       4327533     15.57%     15.57% # Number of BP lookups (Count)
system.cpu.branchPred.lookups_0::CallDirect      5123209     18.43%     34.01% # Number of BP lookups (Count)
system.cpu.branchPred.lookups_0::CallIndirect           23      0.00%     34.01% # Number of BP lookups (Count)
system.cpu.branchPred.lookups_0::DirectCond     17474166     62.88%     96.88% # Number of BP lookups (Count)
system.cpu.branchPred.lookups_0::DirectUncond       866053      3.12%    100.00% # Number of BP lookups (Count)
system.cpu.branchPred.lookups_0::IndirectCond            6      0.00%    100.00% # Number of BP lookups (Count)
system.cpu.branchPred.lookups_0::IndirectUncond           77      0.00%    100.00% # Number of BP lookups (Count)
system.cpu.branchPred.lookups_0::total       27791082                       # Number of BP lookups (Count)
system.cpu.branchPred.squashes_0::NoBranch            6      0.00%      0.00% # Number of branches that got squashed (completely removed) as an earlier branch was mispredicted. (Count)
system.cpu.branchPred.squashes_0::Return         1685      0.07%      0.07% # Number of branches that got squashed (completely removed) as an earlier branch was mispredicted. (Count)
system.cpu.branchPred.squashes_0::CallDirect       797368     32.95%     33.02% # Number of branches that got squashed (completely removed) as an earlier branch was mispredicted. (Count)
system.cpu.branchPred.squashes_0::CallIndirect           16      0.00%     33.02% # Number of branches that got squashed (completely removed) as an earlier branch was mispredicted. (Count)
system.cpu.branchPred.squashes_0::DirectCond      1620713     66.97%     99.99% # Number of branches that got squashed (completely removed) as an earlier branch was mispredicted. (Count)
system.cpu.branchPred.squashes_0::DirectUncond          134      0.01%    100.00% # Number of branches that got squashed (completely removed) as an earlier branch was mispredicted. (Count)
system.cpu.branchPred.squashes_0::IndirectCond            6      0.00%    100.00% # Number of branches that got squashed (completely removed) as an earlier branch was mispredicted. (Count)
system.cpu.branchPred.squashes_0::IndirectUncond            2      0.00%    100.00% # Number of branches that got squashed (completely removed) as an earlier branch was mispredicted. (Count)
system.cpu.branchPred.squashes_0::total       2419930                       # Number of branches that got squashed (completely removed) as an earlier branch was mispredicted. (Count)
system.cpu.branchPred.corrected_0::NoBranch            8      0.00%      0.00% # Number of branches that got corrected but not yet commited. Branches get corrected by decode or after execute. Also a branch misprediction can be detected out-of-order. Therefore, a corrected branch might not end up beeing committed in case an even earlier branch was mispredicted (Count)
system.cpu.branchPred.corrected_0::Return            5      0.00%      0.00% # Number of branches that got corrected but not yet commited. Branches get corrected by decode or after execute. Also a branch misprediction can be detected out-of-order. Therefore, a corrected branch might not end up beeing committed in case an even earlier branch was mispredicted (Count)
system.cpu.branchPred.corrected_0::CallDirect           75      0.00%      0.00% # Number of branches that got corrected but not yet commited. Branches get corrected by decode or after execute. Also a branch misprediction can be detected out-of-order. Therefore, a corrected branch might not end up beeing committed in case an even earlier branch was mispredicted (Count)
system.cpu.branchPred.corrected_0::CallIndirect            7      0.00%      0.00% # Number of branches that got corrected but not yet commited. Branches get corrected by decode or after execute. Also a branch misprediction can be detected out-of-order. Therefore, a corrected branch might not end up beeing committed in case an even earlier branch was mispredicted (Count)
system.cpu.branchPred.corrected_0::DirectCond      3908739    100.00%    100.00% # Number of branches that got corrected but not yet commited. Branches get corrected by decode or after execute. Also a branch misprediction can be detected out-of-order. Therefore, a corrected branch might not end up beeing committed in case an even earlier branch was mispredicted (Count)
system.cpu.branchPred.corrected_0::DirectUncond           33      0.00%    100.00% # Number of branches that got corrected but not yet commited. Branches get corrected by decode or after execute. Also a branch misprediction can be detected out-of-order. Therefore, a corrected branch might not end up beeing committed in case an even earlier branch was mispredicted (Count)
system.cpu.branchPred.corrected_0::IndirectCond            0      0.00%    100.00% # Number of branches that got corrected but not yet commited. Branches get corrected by decode or after execute. Also a branch misprediction can be detected out-of-order. Therefore, a corrected branch might not end up beeing committed in case an even earlier branch was mispredicted (Count)
system.cpu.branchPred.corrected_0::IndirectUncond           32      0.00%    100.00% # Number of branches that got corrected but not yet commited. Branches get corrected by decode or after execute. Also a branch misprediction can be detected out-of-order. Therefore, a corrected branch might not end up beeing committed in case an even earlier branch was mispredicted (Count)
system.cpu.branchPred.corrected_0::total      3908899                       # Number of branches that got corrected but not yet commited. Branches get corrected by decode or after execute. Also a branch misprediction can be detected out-of-order. Therefore, a corrected branch might not end up beeing committed in case an even earlier branch was mispredicted (Count)
system.cpu.branchPred.earlyResteers_0::NoBranch            0                       # Number of branches that got redirected after decode. (Count)
system.cpu.branchPred.earlyResteers_0::Return            0                       # Number of branches that got redirected after decode. (Count)
system.cpu.branchPred.earlyResteers_0::CallDirect            0                       # Number of branches that got redirected after decode. (Count)
system.cpu.branchPred.earlyResteers_0::CallIndirect            0                       # Number of branches that got redirected after decode. (Count)
system.cpu.branchPred.earlyResteers_0::DirectCond            0                       # Number of branches that got redirected after decode. (Count)
system.cpu.branchPred.earlyResteers_0::DirectUncond            0                       # Number of branches that got redirected after decode. (Count)
system.cpu.branchPred.earlyResteers_0::IndirectCond            0                       # Number of branches that got redirected after decode. (Count)
system.cpu.branchPred.earlyResteers_0::IndirectUncond            0                       # Number of branches that got redirected after decode. (Count)
system.cpu.branchPred.earlyResteers_0::total            0                       # Number of branches that got redirected after decode. (Count)
system.cpu.branchPred.committed_0::NoBranch            9      0.00%      0.00% # Number of branches finally committed  (Count)
system.cpu.branchPred.committed_0::Return      4325848     17.05%     17.05% # Number of branches finally committed  (Count)
system.cpu.branchPred.committed_0::CallDirect      4325841     17.05%     34.10% # Number of branches finally committed  (Count)
system.cpu.branchPred.committed_0::CallIndirect            7      0.00%     34.10% # Number of branches finally committed  (Count)
system.cpu.branchPred.committed_0::DirectCond     15853452     62.49%     96.59% # Number of branches finally committed  (Count)
system.cpu.branchPred.committed_0::DirectUncond       865919      3.41%    100.00% # Number of branches finally committed  (Count)
system.cpu.branchPred.committed_0::IndirectCond            0      0.00%    100.00% # Number of branches finally committed  (Count)
system.cpu.branchPred.committed_0::IndirectUncond           75      0.00%    100.00% # Number of branches finally committed  (Count)
system.cpu.branchPred.committed_0::total     25371151                       # Number of branches finally committed  (Count)
system.cpu.branchPred.mispredicted_0::NoBranch            8      0.00%      0.00% # Number of committed branches that were mispredicted. (Count)
system.cpu.branchPred.mispredicted_0::Return            5      0.00%      0.00% # Number of committed branches that were mispredicted. (Count)
system.cpu.branchPred.mispredicted_0::CallDirect           75      0.00%      0.00% # Number of committed branches that were mispredicted. (Count)
system.cpu.branchPred.mispredicted_0::CallIndirect            7      0.00%      0.00% # Number of committed branches that were mispredicted. (Count)
system.cpu.branchPred.mispredicted_0::DirectCond      3908739    100.00%    100.00% # Number of committed branches that were mispredicted. (Count)
system.cpu.branchPred.mispredicted_0::DirectUncond           33      0.00%    100.00% # Number of committed branches that were mispredicted. (Count)
system.cpu.branchPred.mispredicted_0::IndirectCond            0      0.00%    100.00% # Number of committed branches that were mispredicted. (Count)
system.cpu.branchPred.mispredicted_0::IndirectUncond           32      0.00%    100.00% # Number of committed branches that were mispredicted. (Count)
system.cpu.branchPred.mispredicted_0::total      3908899                       # Number of committed branches that were mispredicted. (Count)
system.cpu.branchPred.targetProvider_0::NoTarget      4727033     17.01%     17.01% # The component providing the target for taken branches (Count)
system.cpu.branchPred.targetProvider_0::BTB     18736503     67.42%     84.43% # The component providing the target for taken branches (Count)
system.cpu.branchPred.targetProvider_0::RAS      4327531     15.57%    100.00% # The component providing the target for taken branches (Count)
system.cpu.branchPred.targetProvider_0::Indirect           15      0.00%    100.00% # The component providing the target for taken branches (Count)
system.cpu.branchPred.targetProvider_0::total     27791082                       # The component providing the target for taken branches (Count)
system.cpu.branchPred.targetWrong_0::NoBranch      1660608     42.48%     42.48% # Number of branches where the target was incorrect or not available at prediction time. (Count)
system.cpu.branchPred.targetWrong_0::Return      2248279     57.52%    100.00% # Number of branches where the target was incorrect or not available at prediction time. (Count)
system.cpu.branchPred.targetWrong_0::CallDirect            3      0.00%    100.00% # Number of branches where the target was incorrect or not available at prediction time. (Count)
system.cpu.branchPred.targetWrong_0::CallIndirect            0      0.00%    100.00% # Number of branches where the target was incorrect or not available at prediction time. (Count)
system.cpu.branchPred.targetWrong_0::DirectCond            0      0.00%    100.00% # Number of branches where the target was incorrect or not available at prediction time. (Count)
system.cpu.branchPred.targetWrong_0::DirectUncond            0      0.00%    100.00% # Number of branches where the target was incorrect or not available at prediction time. (Count)
system.cpu.branchPred.targetWrong_0::IndirectCond            0      0.00%    100.00% # Number of branches where the target was incorrect or not available at prediction time. (Count)
system.cpu.branchPred.targetWrong_0::IndirectUncond            0      0.00%    100.00% # Number of branches where the target was incorrect or not available at prediction time. (Count)
system.cpu.branchPred.targetWrong_0::total      3908890                       # Number of branches where the target was incorrect or not available at prediction time. (Count)
system.cpu.branchPred.condPredicted          17474194                       # Number of conditional branches predicted (Count)
system.cpu.branchPred.condPredictedTaken     12747814                       # Number of conditional branches predicted as taken (Count)
system.cpu.branchPred.condIncorrect           3908899                       # Number of conditional branches incorrect (Count)
system.cpu.branchPred.predTakenBTBMiss            146                       # Number of branches predicted taken but missed in BTB (Count)
system.cpu.branchPred.NotTakenMispredicted      1660620                       # Number branches predicted 'not taken' but turned out to be taken (Count)
system.cpu.branchPred.TakenMispredicted       2248279                       # Number branches predicted taken but are actually not taken (Count)
system.cpu.branchPred.BTBLookups             27791082                       # Number of BTB lookups (Count)
system.cpu.branchPred.BTBUpdates              1660568                       # Number of BTB updates (Count)
system.cpu.branchPred.BTBHits                23458207                       # Number of BTB hits (Count)
system.cpu.branchPred.BTBHitRatio            0.844091                       # BTB Hit Ratio (Ratio)
system.cpu.branchPred.BTBMispredicted             230                       # Number BTB mispredictions. No target found or target wrong (Count)
system.cpu.branchPred.indirectLookups             100                       # Number of indirect predictor lookups. (Count)
system.cpu.branchPred.indirectHits                 15                       # Number of indirect target hits. (Count)
system.cpu.branchPred.indirectMisses               85                       # Number of indirect misses. (Count)
system.cpu.branchPred.indirectMispredicted            0                       # Number of mispredicted indirect branches. (Count)
system.cpu.branchPred.btb.lookups::NoBranch           15      0.00%      0.00% # Number of BTB lookups (Count)
system.cpu.branchPred.btb.lookups::Return      4327533     15.57%     15.57% # Number of BTB lookups (Count)
system.cpu.branchPred.btb.lookups::CallDirect      5123209     18.43%     34.01% # Number of BTB lookups (Count)
system.cpu.branchPred.btb.lookups::CallIndirect           23      0.00%     34.01% # Number of BTB lookups (Count)
system.cpu.branchPred.btb.lookups::DirectCond     17474166     62.88%     96.88% # Number of BTB lookups (Count)
system.cpu.branchPred.btb.lookups::DirectUncond       866053      3.12%    100.00% # Number of BTB lookups (Count)
system.cpu.branchPred.btb.lookups::IndirectCond            6      0.00%    100.00% # Number of BTB lookups (Count)
system.cpu.branchPred.btb.lookups::IndirectUncond           77      0.00%    100.00% # Number of BTB lookups (Count)
system.cpu.branchPred.btb.lookups::total     27791082                       # Number of BTB lookups (Count)
system.cpu.branchPred.btb.misses::NoBranch           15      0.00%      0.00% # Number of BTB misses (Count)
system.cpu.branchPred.btb.misses::Return      4327532     99.88%     99.88% # Number of BTB misses (Count)
system.cpu.branchPred.btb.misses::CallDirect          238      0.01%     99.88% # Number of BTB misses (Count)
system.cpu.branchPred.btb.misses::CallIndirect           23      0.00%     99.88% # Number of BTB misses (Count)
system.cpu.branchPred.btb.misses::DirectCond         4840      0.11%     99.99% # Number of BTB misses (Count)
system.cpu.branchPred.btb.misses::DirectUncond          144      0.00%    100.00% # Number of BTB misses (Count)
system.cpu.branchPred.btb.misses::IndirectCond            6      0.00%    100.00% # Number of BTB misses (Count)
system.cpu.branchPred.btb.misses::IndirectUncond           77      0.00%    100.00% # Number of BTB misses (Count)
system.cpu.branchPred.btb.misses::total       4332875                       # Number of BTB misses (Count)
system.cpu.branchPred.btb.updates::NoBranch            0      0.00%      0.00% # Number of BTB updates (Count)
system.cpu.branchPred.btb.updates::Return            0      0.00%      0.00% # Number of BTB updates (Count)
system.cpu.branchPred.btb.updates::CallDirect           75      0.00%      0.00% # Number of BTB updates (Count)
system.cpu.branchPred.btb.updates::CallIndirect            0      0.00%      0.00% # Number of BTB updates (Count)
system.cpu.branchPred.btb.updates::DirectCond      1660460     99.99%    100.00% # Number of BTB updates (Count)
system.cpu.branchPred.btb.updates::DirectUncond           33      0.00%    100.00% # Number of BTB updates (Count)
system.cpu.branchPred.btb.updates::IndirectCond            0      0.00%    100.00% # Number of BTB updates (Count)
system.cpu.branchPred.btb.updates::IndirectUncond            0      0.00%    100.00% # Number of BTB updates (Count)
system.cpu.branchPred.btb.updates::total      1660568                       # Number of BTB updates (Count)
system.cpu.branchPred.btb.mispredict::NoBranch            0      0.00%      0.00% # Number of BTB mispredictions. No target found or target wrong. (Count)
system.cpu.branchPred.btb.mispredict::Return            0      0.00%      0.00% # Number of BTB mispredictions. No target found or target wrong. (Count)
system.cpu.branchPred.btb.mispredict::CallDirect           75      0.00%      0.00% # Number of BTB mispredictions. No target found or target wrong. (Count)
system.cpu.branchPred.btb.mispredict::CallIndirect            0      0.00%      0.00% # Number of BTB mispredictions. No target found or target wrong. (Count)
system.cpu.branchPred.btb.mispredict::DirectCond      1660460     99.99%    100.00% # Number of BTB mispredictions. No target found or target wrong. (Count)
system.cpu.branchPred.btb.mispredict::DirectUncond           33      0.00%    100.00% # Number of BTB mispredictions. No target found or target wrong. (Count)
system.cpu.branchPred.btb.mispredict::IndirectCond            0      0.00%    100.00% # Number of BTB mispredictions. No target found or target wrong. (Count)
system.cpu.branchPred.btb.mispredict::IndirectUncond            0      0.00%    100.00% # Number of BTB mispredictions. No target found or target wrong. (Count)
system.cpu.branchPred.btb.mispredict::total      1660568                       # Number of BTB mispredictions. No target found or target wrong. (Count)
system.cpu.branchPred.btb.power_state.pwrStateResidencyTicks::UNDEFINED 7164030532500                       # Cumulative time (in ticks) in various power states (Tick)
system.cpu.branchPred.indirectBranchPred.lookups          100                       # Number of lookups (Count)
system.cpu.branchPred.indirectBranchPred.hits           15                       # Number of hits of a tag (Count)
system.cpu.branchPred.indirectBranchPred.misses           85                       # Number of misses (Count)
system.cpu.branchPred.indirectBranchPred.targetRecords           39                       # Number of targets that where recorded/installed in the cache (Count)
system.cpu.branchPred.indirectBranchPred.indirectRecords          145                       # Number of indirect branches/calls recorded in the indirect hist (Count)
system.cpu.branchPred.indirectBranchPred.speculativeOverflows            0                       # Number of times more than the allowed capacity for speculative branches/calls where in flight and destroy the path history (Count)
system.cpu.branchPred.ras.pushes              5124917                       # Number of times a PC was pushed onto the RAS (Count)
system.cpu.branchPred.ras.pops                5124917                       # Number of times a PC was poped from the RAS (Count)
system.cpu.branchPred.ras.squashes             799069                       # Number of times the stack operation was squashed due to wrong speculation. (Count)
system.cpu.branchPred.ras.used                4325848                       # Number of times the RAS is the provider (Count)
system.cpu.branchPred.ras.correct             4325843                       # Number of times the RAS is the provider and the prediction is correct (Count)
system.cpu.branchPred.ras.incorrect                 5                       # Number of times the RAS is the provider and the prediction is wrong (Count)
system.cpu.commitStats0.numInsts            500000000                       # Number of instructions committed (thread level) (Count)
system.cpu.commitStats0.numOps              508652402                       # Number of ops (including micro ops) committed (thread level) (Count)
system.cpu.commitStats0.numInstsNotNOP              0                       # Number of instructions committed excluding NOPs or prefetches (Count)
system.cpu.commitStats0.numOpsNotNOP                0                       # Number of Ops (including micro ops) Simulated (Count)
system.cpu.commitStats0.cpi                 28.656122                       # CPI: cycles per instruction (thread level) ((Cycle/Count))
system.cpu.commitStats0.ipc                  0.034897                       # IPC: instructions per cycle (thread level) ((Count/Cycle))
system.cpu.commitStats0.numMemRefs                  0                       # Number of memory references committed (Count)
system.cpu.commitStats0.numFpInsts                  0                       # Number of float instructions (Count)
system.cpu.commitStats0.numIntInsts                 0                       # Number of integer instructions (Count)
system.cpu.commitStats0.numLoadInsts                0                       # Number of load instructions (Count)
system.cpu.commitStats0.numStoreInsts               0                       # Number of store instructions (Count)
system.cpu.commitStats0.numVecInsts                 0                       # Number of vector instructions (Count)
system.cpu.commitStats0.committedInstType::No_OpClass            0      0.00%      0.00% # Class of committed instruction. (Count)
system.cpu.commitStats0.committedInstType::IntAlu    282149208     55.47%     55.47% # Class of committed instruction. (Count)
system.cpu.commitStats0.committedInstType::IntMult     25080696      4.93%     60.40% # Class of committed instruction. (Count)
system.cpu.commitStats0.committedInstType::IntDiv            0      0.00%     60.40% # Class of committed instruction. (Count)
system.cpu.commitStats0.committedInstType::FloatAdd            0      0.00%     60.40% # Class of committed instruction. (Count)
system.cpu.commitStats0.committedInstType::FloatCmp            0      0.00%     60.40% # Class of committed instruction. (Count)
system.cpu.commitStats0.committedInstType::FloatCvt            0      0.00%     60.40% # Class of committed instruction. (Count)
system.cpu.commitStats0.committedInstType::FloatMult            0      0.00%     60.40% # Class of committed instruction. (Count)
system.cpu.commitStats0.committedInstType::FloatMultAcc            0      0.00%     60.40% # Class of committed instruction. (Count)
system.cpu.commitStats0.committedInstType::FloatDiv            0      0.00%     60.40% # Class of committed instruction. (Count)
system.cpu.commitStats0.committedInstType::FloatMisc            0      0.00%     60.40% # Class of committed instruction. (Count)
system.cpu.commitStats0.committedInstType::FloatSqrt            0      0.00%     60.40% # Class of committed instruction. (Count)
system.cpu.commitStats0.committedInstType::SimdAdd            0      0.00%     60.40% # Class of committed instruction. (Count)
system.cpu.commitStats0.committedInstType::SimdAddAcc            0      0.00%     60.40% # Class of committed instruction. (Count)
system.cpu.commitStats0.committedInstType::SimdAlu            0      0.00%     60.40% # Class of committed instruction. (Count)
system.cpu.commitStats0.committedInstType::SimdCmp            0      0.00%     60.40% # Class of committed instruction. (Count)
system.cpu.commitStats0.committedInstType::SimdCvt            0      0.00%     60.40% # Class of committed instruction. (Count)
system.cpu.commitStats0.committedInstType::SimdMisc            0      0.00%     60.40% # Class of committed instruction. (Count)
system.cpu.commitStats0.committedInstType::SimdMult            0      0.00%     60.40% # Class of committed instruction. (Count)
system.cpu.commitStats0.committedInstType::SimdMultAcc            0      0.00%     60.40% # Class of committed instruction. (Count)
system.cpu.commitStats0.committedInstType::SimdMatMultAcc            0      0.00%     60.40% # Class of committed instruction. (Count)
system.cpu.commitStats0.committedInstType::SimdShift            0      0.00%     60.40% # Class of committed instruction. (Count)
system.cpu.commitStats0.committedInstType::SimdShiftAcc            0      0.00%     60.40% # Class of committed instruction. (Count)
system.cpu.commitStats0.committedInstType::SimdDiv            0      0.00%     60.40% # Class of committed instruction. (Count)
system.cpu.commitStats0.committedInstType::SimdSqrt            0      0.00%     60.40% # Class of committed instruction. (Count)
system.cpu.commitStats0.committedInstType::SimdFloatAdd            0      0.00%     60.40% # Class of committed instruction. (Count)
system.cpu.commitStats0.committedInstType::SimdFloatAlu            0      0.00%     60.40% # Class of committed instruction. (Count)
system.cpu.commitStats0.committedInstType::SimdFloatCmp            0      0.00%     60.40% # Class of committed instruction. (Count)
system.cpu.commitStats0.committedInstType::SimdFloatCvt            0      0.00%     60.40% # Class of committed instruction. (Count)
system.cpu.commitStats0.committedInstType::SimdFloatDiv            0      0.00%     60.40% # Class of committed instruction. (Count)
system.cpu.commitStats0.committedInstType::SimdFloatMisc           17      0.00%     60.40% # Class of committed instruction. (Count)
system.cpu.commitStats0.committedInstType::SimdFloatMult            0      0.00%     60.40% # Class of committed instruction. (Count)
system.cpu.commitStats0.committedInstType::SimdFloatMultAcc            0      0.00%     60.40% # Class of committed instruction. (Count)
system.cpu.commitStats0.committedInstType::SimdFloatMatMultAcc            0      0.00%     60.40% # Class of committed instruction. (Count)
system.cpu.commitStats0.committedInstType::SimdFloatSqrt            0      0.00%     60.40% # Class of committed instruction. (Count)
system.cpu.commitStats0.committedInstType::SimdReduceAdd            0      0.00%     60.40% # Class of committed instruction. (Count)
system.cpu.commitStats0.committedInstType::SimdReduceAlu            0      0.00%     60.40% # Class of committed instruction. (Count)
system.cpu.commitStats0.committedInstType::SimdReduceCmp            0      0.00%     60.40% # Class of committed instruction. (Count)
system.cpu.commitStats0.committedInstType::SimdFloatReduceAdd            0      0.00%     60.40% # Class of committed instruction. (Count)
system.cpu.commitStats0.committedInstType::SimdFloatReduceCmp            0      0.00%     60.40% # Class of committed instruction. (Count)
system.cpu.commitStats0.committedInstType::SimdAes            0      0.00%     60.40% # Class of committed instruction. (Count)
system.cpu.commitStats0.committedInstType::SimdAesMix            0      0.00%     60.40% # Class of committed instruction. (Count)
system.cpu.commitStats0.committedInstType::SimdSha1Hash            0      0.00%     60.40% # Class of committed instruction. (Count)
system.cpu.commitStats0.committedInstType::SimdSha1Hash2            0      0.00%     60.40% # Class of committed instruction. (Count)
system.cpu.commitStats0.committedInstType::SimdSha256Hash            0      0.00%     60.40% # Class of committed instruction. (Count)
system.cpu.commitStats0.committedInstType::SimdSha256Hash2            0      0.00%     60.40% # Class of committed instruction. (Count)
system.cpu.commitStats0.committedInstType::SimdShaSigma2            0      0.00%     60.40% # Class of committed instruction. (Count)
system.cpu.commitStats0.committedInstType::SimdShaSigma3            0      0.00%     60.40% # Class of committed instruction. (Count)
system.cpu.commitStats0.committedInstType::SimdPredAlu            0      0.00%     60.40% # Class of committed instruction. (Count)
system.cpu.commitStats0.committedInstType::Matrix            0      0.00%     60.40% # Class of committed instruction. (Count)
system.cpu.commitStats0.committedInstType::MatrixMov            0      0.00%     60.40% # Class of committed instruction. (Count)
system.cpu.commitStats0.committedInstType::MatrixOP            0      0.00%     60.40% # Class of committed instruction. (Count)
system.cpu.commitStats0.committedInstType::MemRead    165678718     32.57%     92.97% # Class of committed instruction. (Count)
system.cpu.commitStats0.committedInstType::MemWrite     35743763      7.03%    100.00% # Class of committed instruction. (Count)
system.cpu.commitStats0.committedInstType::FloatMemRead            0      0.00%    100.00% # Class of committed instruction. (Count)
system.cpu.commitStats0.committedInstType::FloatMemWrite            0      0.00%    100.00% # Class of committed instruction. (Count)
system.cpu.commitStats0.committedInstType::IprAccess            0      0.00%    100.00% # Class of committed instruction. (Count)
system.cpu.commitStats0.committedInstType::InstPrefetch            0      0.00%    100.00% # Class of committed instruction. (Count)
system.cpu.commitStats0.committedInstType::SimdUnitStrideLoad            0      0.00%    100.00% # Class of committed instruction. (Count)
system.cpu.commitStats0.committedInstType::SimdUnitStrideStore            0      0.00%    100.00% # Class of committed instruction. (Count)
system.cpu.commitStats0.committedInstType::SimdUnitStrideMaskLoad            0      0.00%    100.00% # Class of committed instruction. (Count)
system.cpu.commitStats0.committedInstType::SimdUnitStrideMaskStore            0      0.00%    100.00% # Class of committed instruction. (Count)
system.cpu.commitStats0.committedInstType::SimdStridedLoad            0      0.00%    100.00% # Class of committed instruction. (Count)
system.cpu.commitStats0.committedInstType::SimdStridedStore            0      0.00%    100.00% # Class of committed instruction. (Count)
system.cpu.commitStats0.committedInstType::SimdIndexedLoad            0      0.00%    100.00% # Class of committed instruction. (Count)
system.cpu.commitStats0.committedInstType::SimdIndexedStore            0      0.00%    100.00% # Class of committed instruction. (Count)
system.cpu.commitStats0.committedInstType::SimdWholeRegisterLoad            0      0.00%    100.00% # Class of committed instruction. (Count)
system.cpu.commitStats0.committedInstType::SimdWholeRegisterStore            0      0.00%    100.00% # Class of committed instruction. (Count)
system.cpu.commitStats0.committedInstType::SimdUnitStrideFaultOnlyFirstLoad            0      0.00%    100.00% # Class of committed instruction. (Count)
system.cpu.commitStats0.committedInstType::SimdUnitStrideSegmentedLoad            0      0.00%    100.00% # Class of committed instruction. (Count)
system.cpu.commitStats0.committedInstType::SimdUnitStrideSegmentedStore            0      0.00%    100.00% # Class of committed instruction. (Count)
system.cpu.commitStats0.committedInstType::SimdExt            0      0.00%    100.00% # Class of committed instruction. (Count)
system.cpu.commitStats0.committedInstType::SimdFloatExt            0      0.00%    100.00% # Class of committed instruction. (Count)
system.cpu.commitStats0.committedInstType::SimdConfig            0      0.00%    100.00% # Class of committed instruction. (Count)
system.cpu.commitStats0.committedInstType::total    508652402                       # Class of committed instruction. (Count)
system.cpu.executeStats0.numInsts                   0                       # Number of executed instructions (Count)
system.cpu.executeStats0.numNop                     0                       # Number of nop insts executed (Count)
system.cpu.executeStats0.numBranches                0                       # Number of branches executed (Count)
system.cpu.executeStats0.numLoadInsts               0                       # Number of load instructions executed (Count)
system.cpu.executeStats0.numStoreInsts              0                       # Number of stores executed (Count)
system.cpu.executeStats0.instRate                   0                       # Inst execution rate ((Count/Cycle))
system.cpu.executeStats0.numFpRegWrites             0                       # Number of times the floating registers were written (Count)
system.cpu.executeStats0.numMemRefs                 0                       # Number of memory refs (Count)
system.cpu.executeStats0.numVecAluAccesses            0                       # Number of vector alu accesses (Count)
system.cpu.executeStats0.numDiscardedOps      9857646                       # Number of ops (including micro ops) which were discarded before commit (Count)
system.cpu.fetch2.intInstructions           324100050                       # Number of integer instructions successfully decoded (Count)
system.cpu.fetch2.fpInstructions                    0                       # Number of floating point instructions successfully decoded (Count)
system.cpu.fetch2.vecInstructions                   0                       # Number of SIMD instructions successfully decoded (Count)
system.cpu.fetch2.loadInstructions          193563048                       # Number of memory load instructions successfully decoded (Count)
system.cpu.fetch2.storeInstructions          37654436                       # Number of memory store instructions successfully decoded (Count)
system.cpu.fetch2.amoInstructions                   0                       # Number of memory atomic instructions successfully decoded (Count)
system.cpu.fetchStats0.numInsts                     0                       # Number of instructions fetched (thread level) (Count)
system.cpu.fetchStats0.numOps                       0                       # Number of ops (including micro ops) fetched (thread level) (Count)
system.cpu.fetchStats0.fetchRate                    0                       # Number of inst fetches per cycle ((Count/Cycle))
system.cpu.fetchStats0.branchRate                   0                       # Number of branch fetches per cycle (Ratio)
system.cpu.fetchStats0.numFetchSuspends             0                       # Number of times Execute suspended instruction fetching (Count)
system.cpu.mmu.alignFaults                          0                       # Number of MMU faults due to alignment restrictions (Count)
system.cpu.mmu.prefetchFaults                       0                       # Number of MMU faults due to prefetch (Count)
system.cpu.mmu.domainFaults                         0                       # Number of MMU faults due to domain restrictions (Count)
system.cpu.mmu.permsFaults                          0                       # Number of MMU faults due to permissions restrictions (Count)
system.cpu.mmu.dtb.readHits                         0                       # Read hits (Count)
system.cpu.mmu.dtb.readMisses                       0                       # Read misses (Count)
system.cpu.mmu.dtb.writeHits                        0                       # Write hits (Count)
system.cpu.mmu.dtb.writeMisses                      0                       # Write misses (Count)
system.cpu.mmu.dtb.inserts                          0                       # Number of times an entry is inserted into the TLB (Count)
system.cpu.mmu.dtb.flushTlb                         0                       # Number of times a TLB invalidation was requested (Count)
system.cpu.mmu.dtb.flushedEntries                   0                       # Number of entries that have been flushed from TLB (Count)
system.cpu.mmu.dtb.readAccesses                     0                       # Read accesses (Count)
system.cpu.mmu.dtb.writeAccesses                    0                       # Write accesses (Count)
system.cpu.mmu.dtb.hits                             0                       # Total TLB (inst and data) hits (Count)
system.cpu.mmu.dtb.misses                           0                       # Total TLB (inst and data) misses (Count)
system.cpu.mmu.dtb.accesses                         0                       # Total TLB (inst and data) accesses (Count)
system.cpu.mmu.dtb_walker.walks                     0                       # Table walker walks requested (Count)
system.cpu.mmu.dtb_walker.requestOrigin_Requested::Data            0                       # Table walker requests started/completed, data/inst (Count)
system.cpu.mmu.dtb_walker.requestOrigin_Requested::Inst            0                       # Table walker requests started/completed, data/inst (Count)
system.cpu.mmu.dtb_walker.requestOrigin_Requested::total            0                       # Table walker requests started/completed, data/inst (Count)
system.cpu.mmu.dtb_walker.requestOrigin_Completed::Data            0                       # Table walker requests started/completed, data/inst (Count)
system.cpu.mmu.dtb_walker.requestOrigin_Completed::Inst            0                       # Table walker requests started/completed, data/inst (Count)
system.cpu.mmu.dtb_walker.requestOrigin_Completed::total            0                       # Table walker requests started/completed, data/inst (Count)
system.cpu.mmu.dtb_walker.requestOrigin::total            0                       # Table walker requests started/completed, data/inst (Count)
system.cpu.mmu.dtb_walker.power_state.pwrStateResidencyTicks::UNDEFINED 7164030532500                       # Cumulative time (in ticks) in various power states (Tick)
system.cpu.mmu.itb.instHits                         0                       # Inst hits (Count)
system.cpu.mmu.itb.instMisses                       0                       # Inst misses (Count)
system.cpu.mmu.itb.inserts                          0                       # Number of times an entry is inserted into the TLB (Count)
system.cpu.mmu.itb.flushTlb                         0                       # Number of times a TLB invalidation was requested (Count)
system.cpu.mmu.itb.flushedEntries                   0                       # Number of entries that have been flushed from TLB (Count)
system.cpu.mmu.itb.instAccesses                     0                       # Inst accesses (Count)
system.cpu.mmu.itb.hits                             0                       # Total TLB (inst and data) hits (Count)
system.cpu.mmu.itb.misses                           0                       # Total TLB (inst and data) misses (Count)
system.cpu.mmu.itb.accesses                         0                       # Total TLB (inst and data) accesses (Count)
system.cpu.mmu.itb_walker.walks                     0                       # Table walker walks requested (Count)
system.cpu.mmu.itb_walker.requestOrigin_Requested::Data            0                       # Table walker requests started/completed, data/inst (Count)
system.cpu.mmu.itb_walker.requestOrigin_Requested::Inst            0                       # Table walker requests started/completed, data/inst (Count)
system.cpu.mmu.itb_walker.requestOrigin_Requested::total            0                       # Table walker requests started/completed, data/inst (Count)
system.cpu.mmu.itb_walker.requestOrigin_Completed::Data            0                       # Table walker requests started/completed, data/inst (Count)
system.cpu.mmu.itb_walker.requestOrigin_Completed::Inst            0                       # Table walker requests started/completed, data/inst (Count)
system.cpu.mmu.itb_walker.requestOrigin_Completed::total            0                       # Table walker requests started/completed, data/inst (Count)
system.cpu.mmu.itb_walker.requestOrigin::total            0                       # Table walker requests started/completed, data/inst (Count)
system.cpu.mmu.itb_walker.power_state.pwrStateResidencyTicks::UNDEFINED 7164030532500                       # Cumulative time (in ticks) in various power states (Tick)
system.cpu.mmu.l2_shared.instHits                   0                       # Inst hits (Count)
system.cpu.mmu.l2_shared.instMisses                 0                       # Inst misses (Count)
system.cpu.mmu.l2_shared.inserts                    0                       # Number of times an entry is inserted into the TLB (Count)
system.cpu.mmu.l2_shared.flushTlb                   0                       # Number of times a TLB invalidation was requested (Count)
system.cpu.mmu.l2_shared.flushedEntries             0                       # Number of entries that have been flushed from TLB (Count)
system.cpu.mmu.l2_shared.instAccesses               0                       # Inst accesses (Count)
system.cpu.mmu.l2_shared.hits                       0                       # Total TLB (inst and data) hits (Count)
system.cpu.mmu.l2_shared.misses                     0                       # Total TLB (inst and data) misses (Count)
system.cpu.mmu.l2_shared.accesses                   0                       # Total TLB (inst and data) accesses (Count)
system.cpu.mmu.stage2_dtb.readHits                  0                       # Read hits (Count)
system.cpu.mmu.stage2_dtb.readMisses                0                       # Read misses (Count)
system.cpu.mmu.stage2_dtb.writeHits                 0                       # Write hits (Count)
system.cpu.mmu.stage2_dtb.writeMisses               0                       # Write misses (Count)
system.cpu.mmu.stage2_dtb.inserts                   0                       # Number of times an entry is inserted into the TLB (Count)
system.cpu.mmu.stage2_dtb.flushTlb                  0                       # Number of times a TLB invalidation was requested (Count)
system.cpu.mmu.stage2_dtb.flushedEntries            0                       # Number of entries that have been flushed from TLB (Count)
system.cpu.mmu.stage2_dtb.readAccesses              0                       # Read accesses (Count)
system.cpu.mmu.stage2_dtb.writeAccesses             0                       # Write accesses (Count)
system.cpu.mmu.stage2_dtb.hits                      0                       # Total TLB (inst and data) hits (Count)
system.cpu.mmu.stage2_dtb.misses                    0                       # Total TLB (inst and data) misses (Count)
system.cpu.mmu.stage2_dtb.accesses                  0                       # Total TLB (inst and data) accesses (Count)
system.cpu.mmu.stage2_dtb_walker.walks              0                       # Table walker walks requested (Count)
system.cpu.mmu.stage2_dtb_walker.requestOrigin_Requested::Data            0                       # Table walker requests started/completed, data/inst (Count)
system.cpu.mmu.stage2_dtb_walker.requestOrigin_Requested::Inst            0                       # Table walker requests started/completed, data/inst (Count)
system.cpu.mmu.stage2_dtb_walker.requestOrigin_Requested::total            0                       # Table walker requests started/completed, data/inst (Count)
system.cpu.mmu.stage2_dtb_walker.requestOrigin_Completed::Data            0                       # Table walker requests started/completed, data/inst (Count)
system.cpu.mmu.stage2_dtb_walker.requestOrigin_Completed::Inst            0                       # Table walker requests started/completed, data/inst (Count)
system.cpu.mmu.stage2_dtb_walker.requestOrigin_Completed::total            0                       # Table walker requests started/completed, data/inst (Count)
system.cpu.mmu.stage2_dtb_walker.requestOrigin::total            0                       # Table walker requests started/completed, data/inst (Count)
system.cpu.mmu.stage2_dtb_walker.power_state.pwrStateResidencyTicks::UNDEFINED 7164030532500                       # Cumulative time (in ticks) in various power states (Tick)
system.cpu.mmu.stage2_itb.instHits                  0                       # Inst hits (Count)
system.cpu.mmu.stage2_itb.instMisses                0                       # Inst misses (Count)
system.cpu.mmu.stage2_itb.inserts                   0                       # Number of times an entry is inserted into the TLB (Count)
system.cpu.mmu.stage2_itb.flushTlb                  0                       # Number of times a TLB invalidation was requested (Count)
system.cpu.mmu.stage2_itb.flushedEntries            0                       # Number of entries that have been flushed from TLB (Count)
system.cpu.mmu.stage2_itb.instAccesses              0                       # Inst accesses (Count)
system.cpu.mmu.stage2_itb.hits                      0                       # Total TLB (inst and data) hits (Count)
system.cpu.mmu.stage2_itb.misses                    0                       # Total TLB (inst and data) misses (Count)
system.cpu.mmu.stage2_itb.accesses                  0                       # Total TLB (inst and data) accesses (Count)
system.cpu.mmu.stage2_itb_walker.walks              0                       # Table walker walks requested (Count)
system.cpu.mmu.stage2_itb_walker.requestOrigin_Requested::Data            0                       # Table walker requests started/completed, data/inst (Count)
system.cpu.mmu.stage2_itb_walker.requestOrigin_Requested::Inst            0                       # Table walker requests started/completed, data/inst (Count)
system.cpu.mmu.stage2_itb_walker.requestOrigin_Requested::total            0                       # Table walker requests started/completed, data/inst (Count)
system.cpu.mmu.stage2_itb_walker.requestOrigin_Completed::Data            0                       # Table walker requests started/completed, data/inst (Count)
system.cpu.mmu.stage2_itb_walker.requestOrigin_Completed::Inst            0                       # Table walker requests started/completed, data/inst (Count)
system.cpu.mmu.stage2_itb_walker.requestOrigin_Completed::total            0                       # Table walker requests started/completed, data/inst (Count)
system.cpu.mmu.stage2_itb_walker.requestOrigin::total            0                       # Table walker requests started/completed, data/inst (Count)
system.cpu.mmu.stage2_itb_walker.power_state.pwrStateResidencyTicks::UNDEFINED 7164030532500                       # Cumulative time (in ticks) in various power states (Tick)
system.cpu.power_state.pwrStateResidencyTicks::ON 7164030532500                       # Cumulative time (in ticks) in various power states (Tick)
system.cpu.thread_0.numInsts                500000000                       # Number of Instructions committed (Count)
system.cpu.thread_0.numOps                  508652402                       # Number of Ops committed (Count)
system.cpu.thread_0.numMemRefs                      0                       # Number of Memory References (Count)
system.cpu.workload.numSyscalls                     8                       # Number of system calls (Count)
system.mem_ctrl.avgPriority_cpu.inst::samples  82893995.00                       # Average QoS priority value for accepted requests (Count)
system.mem_ctrl.avgPriority_cpu.data::samples 145718149.00                       # Average QoS priority value for accepted requests (Count)
system.mem_ctrl.priorityMinLatency       0.000000017492                       # per QoS priority minimum request to response latency (Second)
system.mem_ctrl.priorityMaxLatency       0.010009459438                       # per QoS priority maximum request to response latency (Second)
system.mem_ctrl.numReadWriteTurnArounds        387951                       # Number of turnarounds from READ to WRITE (Count)
system.mem_ctrl.numWriteReadTurnArounds        387951                       # Number of turnarounds from WRITE to READ (Count)
system.mem_ctrl.numStayReadState            480238852                       # Number of times bus staying in READ state (Count)
system.mem_ctrl.numStayWriteState             5825512                       # Number of times bus staying in WRITE state (Count)
system.mem_ctrl.readReqs                    239018030                       # Number of read requests accepted (Count)
system.mem_ctrl.writeReqs                    35743731                       # Number of write requests accepted (Count)
system.mem_ctrl.readBursts                  239018030                       # Number of controller read bursts, including those serviced by the write queue (Count)
system.mem_ctrl.writeBursts                  35743731                       # Number of controller write bursts, including those merged in the write queue (Count)
system.mem_ctrl.servicedByWrQ                16616972                       # Number of controller read bursts serviced by the write queue (Count)
system.mem_ctrl.mergedWrBursts               29532645                       # Number of controller write bursts merged with an existing one (Count)
system.mem_ctrl.neitherReadNorWriteReqs             0                       # Number of requests that are neither read nor write (Count)
system.mem_ctrl.avgRdQLen                        1.50                       # Average read queue length when enqueuing ((Count/Tick))
system.mem_ctrl.avgWrQLen                       57.75                       # Average write queue length when enqueuing ((Count/Tick))
system.mem_ctrl.numRdRetry                          0                       # Number of times read queue was full causing retry (Count)
system.mem_ctrl.numWrRetry                          0                       # Number of times write queue was full causing retry (Count)
system.mem_ctrl.readPktSize::0                    106                       # Read request sizes (log2) (Count)
system.mem_ctrl.readPktSize::1                     33                       # Read request sizes (log2) (Count)
system.mem_ctrl.readPktSize::2              156123649                       # Read request sizes (log2) (Count)
system.mem_ctrl.readPktSize::3                    247                       # Read request sizes (log2) (Count)
system.mem_ctrl.readPktSize::4                      0                       # Read request sizes (log2) (Count)
system.mem_ctrl.readPktSize::5                      0                       # Read request sizes (log2) (Count)
system.mem_ctrl.readPktSize::6               82893995                       # Read request sizes (log2) (Count)
system.mem_ctrl.writePktSize::0                    21                       # Write request sizes (log2) (Count)
system.mem_ctrl.writePktSize::1                    10                       # Write request sizes (log2) (Count)
system.mem_ctrl.writePktSize::2              35743541                       # Write request sizes (log2) (Count)
system.mem_ctrl.writePktSize::3                   159                       # Write request sizes (log2) (Count)
system.mem_ctrl.writePktSize::4                     0                       # Write request sizes (log2) (Count)
system.mem_ctrl.writePktSize::5                     0                       # Write request sizes (log2) (Count)
system.mem_ctrl.writePktSize::6                     0                       # Write request sizes (log2) (Count)
system.mem_ctrl.rdQLenPdf::0                144727829                       # What read queue length does an incoming req see (Count)
system.mem_ctrl.rdQLenPdf::1                 73655443                       # What read queue length does an incoming req see (Count)
system.mem_ctrl.rdQLenPdf::2                  4017786                       # What read queue length does an incoming req see (Count)
system.mem_ctrl.rdQLenPdf::3                        0                       # What read queue length does an incoming req see (Count)
system.mem_ctrl.rdQLenPdf::4                        0                       # What read queue length does an incoming req see (Count)
system.mem_ctrl.rdQLenPdf::5                        0                       # What read queue length does an incoming req see (Count)
system.mem_ctrl.rdQLenPdf::6                        0                       # What read queue length does an incoming req see (Count)
system.mem_ctrl.rdQLenPdf::7                        0                       # What read queue length does an incoming req see (Count)
system.mem_ctrl.rdQLenPdf::8                        0                       # What read queue length does an incoming req see (Count)
system.mem_ctrl.rdQLenPdf::9                        0                       # What read queue length does an incoming req see (Count)
system.mem_ctrl.rdQLenPdf::10                       0                       # What read queue length does an incoming req see (Count)
system.mem_ctrl.rdQLenPdf::11                       0                       # What read queue length does an incoming req see (Count)
system.mem_ctrl.rdQLenPdf::12                       0                       # What read queue length does an incoming req see (Count)
system.mem_ctrl.rdQLenPdf::13                       0                       # What read queue length does an incoming req see (Count)
system.mem_ctrl.rdQLenPdf::14                       0                       # What read queue length does an incoming req see (Count)
system.mem_ctrl.rdQLenPdf::15                       0                       # What read queue length does an incoming req see (Count)
system.mem_ctrl.rdQLenPdf::16                       0                       # What read queue length does an incoming req see (Count)
system.mem_ctrl.rdQLenPdf::17                       0                       # What read queue length does an incoming req see (Count)
system.mem_ctrl.rdQLenPdf::18                       0                       # What read queue length does an incoming req see (Count)
system.mem_ctrl.rdQLenPdf::19                       0                       # What read queue length does an incoming req see (Count)
system.mem_ctrl.rdQLenPdf::20                       0                       # What read queue length does an incoming req see (Count)
system.mem_ctrl.rdQLenPdf::21                       0                       # What read queue length does an incoming req see (Count)
system.mem_ctrl.rdQLenPdf::22                       0                       # What read queue length does an incoming req see (Count)
system.mem_ctrl.rdQLenPdf::23                       0                       # What read queue length does an incoming req see (Count)
system.mem_ctrl.rdQLenPdf::24                       0                       # What read queue length does an incoming req see (Count)
system.mem_ctrl.rdQLenPdf::25                       0                       # What read queue length does an incoming req see (Count)
system.mem_ctrl.rdQLenPdf::26                       0                       # What read queue length does an incoming req see (Count)
system.mem_ctrl.rdQLenPdf::27                       0                       # What read queue length does an incoming req see (Count)
system.mem_ctrl.rdQLenPdf::28                       0                       # What read queue length does an incoming req see (Count)
system.mem_ctrl.rdQLenPdf::29                       0                       # What read queue length does an incoming req see (Count)
system.mem_ctrl.rdQLenPdf::30                       0                       # What read queue length does an incoming req see (Count)
system.mem_ctrl.rdQLenPdf::31                       0                       # What read queue length does an incoming req see (Count)
system.mem_ctrl.rdQLenPdf::32                       0                       # What read queue length does an incoming req see (Count)
system.mem_ctrl.rdQLenPdf::33                       0                       # What read queue length does an incoming req see (Count)
system.mem_ctrl.rdQLenPdf::34                       0                       # What read queue length does an incoming req see (Count)
system.mem_ctrl.rdQLenPdf::35                       0                       # What read queue length does an incoming req see (Count)
system.mem_ctrl.rdQLenPdf::36                       0                       # What read queue length does an incoming req see (Count)
system.mem_ctrl.rdQLenPdf::37                       0                       # What read queue length does an incoming req see (Count)
system.mem_ctrl.rdQLenPdf::38                       0                       # What read queue length does an incoming req see (Count)
system.mem_ctrl.rdQLenPdf::39                       0                       # What read queue length does an incoming req see (Count)
system.mem_ctrl.rdQLenPdf::40                       0                       # What read queue length does an incoming req see (Count)
system.mem_ctrl.rdQLenPdf::41                       0                       # What read queue length does an incoming req see (Count)
system.mem_ctrl.rdQLenPdf::42                       0                       # What read queue length does an incoming req see (Count)
system.mem_ctrl.rdQLenPdf::43                       0                       # What read queue length does an incoming req see (Count)
system.mem_ctrl.rdQLenPdf::44                       0                       # What read queue length does an incoming req see (Count)
system.mem_ctrl.rdQLenPdf::45                       0                       # What read queue length does an incoming req see (Count)
system.mem_ctrl.rdQLenPdf::46                       0                       # What read queue length does an incoming req see (Count)
system.mem_ctrl.rdQLenPdf::47                       0                       # What read queue length does an incoming req see (Count)
system.mem_ctrl.rdQLenPdf::48                       0                       # What read queue length does an incoming req see (Count)
system.mem_ctrl.rdQLenPdf::49                       0                       # What read queue length does an incoming req see (Count)
system.mem_ctrl.rdQLenPdf::50                       0                       # What read queue length does an incoming req see (Count)
system.mem_ctrl.rdQLenPdf::51                       0                       # What read queue length does an incoming req see (Count)
system.mem_ctrl.rdQLenPdf::52                       0                       # What read queue length does an incoming req see (Count)
system.mem_ctrl.rdQLenPdf::53                       0                       # What read queue length does an incoming req see (Count)
system.mem_ctrl.rdQLenPdf::54                       0                       # What read queue length does an incoming req see (Count)
system.mem_ctrl.rdQLenPdf::55                       0                       # What read queue length does an incoming req see (Count)
system.mem_ctrl.rdQLenPdf::56                       0                       # What read queue length does an incoming req see (Count)
system.mem_ctrl.rdQLenPdf::57                       0                       # What read queue length does an incoming req see (Count)
system.mem_ctrl.rdQLenPdf::58                       0                       # What read queue length does an incoming req see (Count)
system.mem_ctrl.rdQLenPdf::59                       0                       # What read queue length does an incoming req see (Count)
system.mem_ctrl.rdQLenPdf::60                       0                       # What read queue length does an incoming req see (Count)
system.mem_ctrl.rdQLenPdf::61                       0                       # What read queue length does an incoming req see (Count)
system.mem_ctrl.rdQLenPdf::62                       0                       # What read queue length does an incoming req see (Count)
system.mem_ctrl.rdQLenPdf::63                       0                       # What read queue length does an incoming req see (Count)
system.mem_ctrl.wrQLenPdf::0                        1                       # What write queue length does an incoming req see (Count)
system.mem_ctrl.wrQLenPdf::1                        1                       # What write queue length does an incoming req see (Count)
system.mem_ctrl.wrQLenPdf::2                        1                       # What write queue length does an incoming req see (Count)
system.mem_ctrl.wrQLenPdf::3                        1                       # What write queue length does an incoming req see (Count)
system.mem_ctrl.wrQLenPdf::4                        1                       # What write queue length does an incoming req see (Count)
system.mem_ctrl.wrQLenPdf::5                        1                       # What write queue length does an incoming req see (Count)
system.mem_ctrl.wrQLenPdf::6                        1                       # What write queue length does an incoming req see (Count)
system.mem_ctrl.wrQLenPdf::7                        1                       # What write queue length does an incoming req see (Count)
system.mem_ctrl.wrQLenPdf::8                        1                       # What write queue length does an incoming req see (Count)
system.mem_ctrl.wrQLenPdf::9                        1                       # What write queue length does an incoming req see (Count)
system.mem_ctrl.wrQLenPdf::10                       1                       # What write queue length does an incoming req see (Count)
system.mem_ctrl.wrQLenPdf::11                       1                       # What write queue length does an incoming req see (Count)
system.mem_ctrl.wrQLenPdf::12                       1                       # What write queue length does an incoming req see (Count)
system.mem_ctrl.wrQLenPdf::13                       1                       # What write queue length does an incoming req see (Count)
system.mem_ctrl.wrQLenPdf::14                       1                       # What write queue length does an incoming req see (Count)
system.mem_ctrl.wrQLenPdf::15                       1                       # What write queue length does an incoming req see (Count)
system.mem_ctrl.wrQLenPdf::16                       1                       # What write queue length does an incoming req see (Count)
system.mem_ctrl.wrQLenPdf::17                       1                       # What write queue length does an incoming req see (Count)
system.mem_ctrl.wrQLenPdf::18                       1                       # What write queue length does an incoming req see (Count)
system.mem_ctrl.wrQLenPdf::19                       1                       # What write queue length does an incoming req see (Count)
system.mem_ctrl.wrQLenPdf::20                       1                       # What write queue length does an incoming req see (Count)
system.mem_ctrl.wrQLenPdf::21                       1                       # What write queue length does an incoming req see (Count)
system.mem_ctrl.wrQLenPdf::22                       1                       # What write queue length does an incoming req see (Count)
system.mem_ctrl.wrQLenPdf::23                       1                       # What write queue length does an incoming req see (Count)
system.mem_ctrl.wrQLenPdf::24                       1                       # What write queue length does an incoming req see (Count)
system.mem_ctrl.wrQLenPdf::25                       1                       # What write queue length does an incoming req see (Count)
system.mem_ctrl.wrQLenPdf::26                       1                       # What write queue length does an incoming req see (Count)
system.mem_ctrl.wrQLenPdf::27                       1                       # What write queue length does an incoming req see (Count)
system.mem_ctrl.wrQLenPdf::28                       1                       # What write queue length does an incoming req see (Count)
system.mem_ctrl.wrQLenPdf::29                       1                       # What write queue length does an incoming req see (Count)
system.mem_ctrl.wrQLenPdf::30                       1                       # What write queue length does an incoming req see (Count)
system.mem_ctrl.wrQLenPdf::31                       1                       # What write queue length does an incoming req see (Count)
system.mem_ctrl.wrQLenPdf::32                       1                       # What write queue length does an incoming req see (Count)
system.mem_ctrl.wrQLenPdf::33                       1                       # What write queue length does an incoming req see (Count)
system.mem_ctrl.wrQLenPdf::34                       1                       # What write queue length does an incoming req see (Count)
system.mem_ctrl.wrQLenPdf::35                       1                       # What write queue length does an incoming req see (Count)
system.mem_ctrl.wrQLenPdf::36                       1                       # What write queue length does an incoming req see (Count)
system.mem_ctrl.wrQLenPdf::37                       1                       # What write queue length does an incoming req see (Count)
system.mem_ctrl.wrQLenPdf::38                       1                       # What write queue length does an incoming req see (Count)
system.mem_ctrl.wrQLenPdf::39                       1                       # What write queue length does an incoming req see (Count)
system.mem_ctrl.wrQLenPdf::40                       1                       # What write queue length does an incoming req see (Count)
system.mem_ctrl.wrQLenPdf::41                       1                       # What write queue length does an incoming req see (Count)
system.mem_ctrl.wrQLenPdf::42                       1                       # What write queue length does an incoming req see (Count)
system.mem_ctrl.wrQLenPdf::43                       1                       # What write queue length does an incoming req see (Count)
system.mem_ctrl.wrQLenPdf::44                       1                       # What write queue length does an incoming req see (Count)
system.mem_ctrl.wrQLenPdf::45                       1                       # What write queue length does an incoming req see (Count)
system.mem_ctrl.wrQLenPdf::46                       1                       # What write queue length does an incoming req see (Count)
system.mem_ctrl.wrQLenPdf::47                    1655                       # What write queue length does an incoming req see (Count)
system.mem_ctrl.wrQLenPdf::48                    2163                       # What write queue length does an incoming req see (Count)
system.mem_ctrl.wrQLenPdf::49                  387952                       # What write queue length does an incoming req see (Count)
system.mem_ctrl.wrQLenPdf::50                  387952                       # What write queue length does an incoming req see (Count)
system.mem_ctrl.wrQLenPdf::51                  387952                       # What write queue length does an incoming req see (Count)
system.mem_ctrl.wrQLenPdf::52                  387952                       # What write queue length does an incoming req see (Count)
system.mem_ctrl.wrQLenPdf::53                  387952                       # What write queue length does an incoming req see (Count)
system.mem_ctrl.wrQLenPdf::54                  387951                       # What write queue length does an incoming req see (Count)
system.mem_ctrl.wrQLenPdf::55                  387951                       # What write queue length does an incoming req see (Count)
system.mem_ctrl.wrQLenPdf::56                  387951                       # What write queue length does an incoming req see (Count)
system.mem_ctrl.wrQLenPdf::57                  387951                       # What write queue length does an incoming req see (Count)
system.mem_ctrl.wrQLenPdf::58                  387951                       # What write queue length does an incoming req see (Count)
system.mem_ctrl.wrQLenPdf::59                  387951                       # What write queue length does an incoming req see (Count)
system.mem_ctrl.wrQLenPdf::60                  387951                       # What write queue length does an incoming req see (Count)
system.mem_ctrl.wrQLenPdf::61                  387951                       # What write queue length does an incoming req see (Count)
system.mem_ctrl.wrQLenPdf::62                  387951                       # What write queue length does an incoming req see (Count)
system.mem_ctrl.wrQLenPdf::63                  387951                       # What write queue length does an incoming req see (Count)
system.mem_ctrl.wrQLenPdf::64                  387951                       # What write queue length does an incoming req see (Count)
system.mem_ctrl.wrQLenPdf::65                       0                       # What write queue length does an incoming req see (Count)
system.mem_ctrl.wrQLenPdf::66                       0                       # What write queue length does an incoming req see (Count)
system.mem_ctrl.wrQLenPdf::67                       0                       # What write queue length does an incoming req see (Count)
system.mem_ctrl.wrQLenPdf::68                       0                       # What write queue length does an incoming req see (Count)
system.mem_ctrl.wrQLenPdf::69                       0                       # What write queue length does an incoming req see (Count)
system.mem_ctrl.wrQLenPdf::70                       0                       # What write queue length does an incoming req see (Count)
system.mem_ctrl.wrQLenPdf::71                       0                       # What write queue length does an incoming req see (Count)
system.mem_ctrl.wrQLenPdf::72                       0                       # What write queue length does an incoming req see (Count)
system.mem_ctrl.wrQLenPdf::73                       0                       # What write queue length does an incoming req see (Count)
system.mem_ctrl.wrQLenPdf::74                       0                       # What write queue length does an incoming req see (Count)
system.mem_ctrl.wrQLenPdf::75                       0                       # What write queue length does an incoming req see (Count)
system.mem_ctrl.wrQLenPdf::76                       0                       # What write queue length does an incoming req see (Count)
system.mem_ctrl.wrQLenPdf::77                       0                       # What write queue length does an incoming req see (Count)
system.mem_ctrl.wrQLenPdf::78                       0                       # What write queue length does an incoming req see (Count)
system.mem_ctrl.wrQLenPdf::79                       0                       # What write queue length does an incoming req see (Count)
system.mem_ctrl.wrQLenPdf::80                       0                       # What write queue length does an incoming req see (Count)
system.mem_ctrl.wrQLenPdf::81                       0                       # What write queue length does an incoming req see (Count)
system.mem_ctrl.wrQLenPdf::82                       0                       # What write queue length does an incoming req see (Count)
system.mem_ctrl.wrQLenPdf::83                       0                       # What write queue length does an incoming req see (Count)
system.mem_ctrl.wrQLenPdf::84                       0                       # What write queue length does an incoming req see (Count)
system.mem_ctrl.wrQLenPdf::85                       0                       # What write queue length does an incoming req see (Count)
system.mem_ctrl.wrQLenPdf::86                       0                       # What write queue length does an incoming req see (Count)
system.mem_ctrl.wrQLenPdf::87                       0                       # What write queue length does an incoming req see (Count)
system.mem_ctrl.wrQLenPdf::88                       0                       # What write queue length does an incoming req see (Count)
system.mem_ctrl.wrQLenPdf::89                       0                       # What write queue length does an incoming req see (Count)
system.mem_ctrl.wrQLenPdf::90                       0                       # What write queue length does an incoming req see (Count)
system.mem_ctrl.wrQLenPdf::91                       0                       # What write queue length does an incoming req see (Count)
system.mem_ctrl.wrQLenPdf::92                       0                       # What write queue length does an incoming req see (Count)
system.mem_ctrl.wrQLenPdf::93                       0                       # What write queue length does an incoming req see (Count)
system.mem_ctrl.wrQLenPdf::94                       0                       # What write queue length does an incoming req see (Count)
system.mem_ctrl.wrQLenPdf::95                       0                       # What write queue length does an incoming req see (Count)
system.mem_ctrl.wrQLenPdf::96                       0                       # What write queue length does an incoming req see (Count)
system.mem_ctrl.wrQLenPdf::97                       0                       # What write queue length does an incoming req see (Count)
system.mem_ctrl.wrQLenPdf::98                       0                       # What write queue length does an incoming req see (Count)
system.mem_ctrl.wrQLenPdf::99                       0                       # What write queue length does an incoming req see (Count)
system.mem_ctrl.wrQLenPdf::100                      0                       # What write queue length does an incoming req see (Count)
system.mem_ctrl.wrQLenPdf::101                      0                       # What write queue length does an incoming req see (Count)
system.mem_ctrl.wrQLenPdf::102                      0                       # What write queue length does an incoming req see (Count)
system.mem_ctrl.wrQLenPdf::103                      0                       # What write queue length does an incoming req see (Count)
system.mem_ctrl.wrQLenPdf::104                      0                       # What write queue length does an incoming req see (Count)
system.mem_ctrl.wrQLenPdf::105                      0                       # What write queue length does an incoming req see (Count)
system.mem_ctrl.wrQLenPdf::106                      0                       # What write queue length does an incoming req see (Count)
system.mem_ctrl.wrQLenPdf::107                      0                       # What write queue length does an incoming req see (Count)
system.mem_ctrl.wrQLenPdf::108                      0                       # What write queue length does an incoming req see (Count)
system.mem_ctrl.wrQLenPdf::109                      0                       # What write queue length does an incoming req see (Count)
system.mem_ctrl.wrQLenPdf::110                      0                       # What write queue length does an incoming req see (Count)
system.mem_ctrl.wrQLenPdf::111                      0                       # What write queue length does an incoming req see (Count)
system.mem_ctrl.wrQLenPdf::112                      0                       # What write queue length does an incoming req see (Count)
system.mem_ctrl.wrQLenPdf::113                      0                       # What write queue length does an incoming req see (Count)
system.mem_ctrl.wrQLenPdf::114                      0                       # What write queue length does an incoming req see (Count)
system.mem_ctrl.wrQLenPdf::115                      0                       # What write queue length does an incoming req see (Count)
system.mem_ctrl.wrQLenPdf::116                      0                       # What write queue length does an incoming req see (Count)
system.mem_ctrl.wrQLenPdf::117                      0                       # What write queue length does an incoming req see (Count)
system.mem_ctrl.wrQLenPdf::118                      0                       # What write queue length does an incoming req see (Count)
system.mem_ctrl.wrQLenPdf::119                      0                       # What write queue length does an incoming req see (Count)
system.mem_ctrl.wrQLenPdf::120                      0                       # What write queue length does an incoming req see (Count)
system.mem_ctrl.wrQLenPdf::121                      0                       # What write queue length does an incoming req see (Count)
system.mem_ctrl.wrQLenPdf::122                      0                       # What write queue length does an incoming req see (Count)
system.mem_ctrl.wrQLenPdf::123                      0                       # What write queue length does an incoming req see (Count)
system.mem_ctrl.wrQLenPdf::124                      0                       # What write queue length does an incoming req see (Count)
system.mem_ctrl.wrQLenPdf::125                      0                       # What write queue length does an incoming req see (Count)
system.mem_ctrl.wrQLenPdf::126                      0                       # What write queue length does an incoming req see (Count)
system.mem_ctrl.wrQLenPdf::127                      0                       # What write queue length does an incoming req see (Count)
system.mem_ctrl.rdPerTurnAround::samples       387951                       # Reads before turning the bus around for writes (Count)
system.mem_ctrl.rdPerTurnAround::mean      573.270462                       # Reads before turning the bus around for writes (Count)
system.mem_ctrl.rdPerTurnAround::gmean     540.125464                       # Reads before turning the bus around for writes (Count)
[...]
system.mem_ctrl.dram.perBankRdBursts::18      1175647                       # Per bank write bursts (Count)
system.mem_ctrl.dram.perBankRdBursts::19      1171101                       # Per bank write bursts (Count)
system.mem_ctrl.dram.perBankRdBursts::20      1171446                       # Per bank write bursts (Count)
system.mem_ctrl.dram.perBankRdBursts::21    102355365                       # Per bank write bursts (Count)
system.mem_ctrl.dram.perBankRdBursts::22      1173516                       # Per bank write bursts (Count)
system.mem_ctrl.dram.perBankRdBursts::23      1171760                       # Per bank write bursts (Count)
system.mem_ctrl.dram.perBankRdBursts::24      1170650                       # Per bank write bursts (Count)
system.mem_ctrl.dram.perBankRdBursts::25      1170677                       # Per bank write bursts (Count)
system.mem_ctrl.dram.perBankRdBursts::26      1174536                       # Per bank write bursts (Count)
system.mem_ctrl.dram.perBankRdBursts::27      1173647                       # Per bank write bursts (Count)
system.mem_ctrl.dram.perBankRdBursts::28      1175583                       # Per bank write bursts (Count)
system.mem_ctrl.dram.perBankRdBursts::29      1170889                       # Per bank write bursts (Count)
system.mem_ctrl.dram.perBankRdBursts::30      1173692                       # Per bank write bursts (Count)
system.mem_ctrl.dram.perBankRdBursts::31      1170936                       # Per bank write bursts (Count)
system.mem_ctrl.dram.perBankWrBursts::0        172104                       # Per bank write bursts (Count)
system.mem_ctrl.dram.perBankWrBursts::1        172713                       # Per bank write bursts (Count)
system.mem_ctrl.dram.perBankWrBursts::2        172941                       # Per bank write bursts (Count)
system.mem_ctrl.dram.perBankWrBursts::3        171751                       # Per bank write bursts (Count)
system.mem_ctrl.dram.perBankWrBursts::4        169233                       # Per bank write bursts (Count)
system.mem_ctrl.dram.perBankWrBursts::5        170089                       # Per bank write bursts (Count)
system.mem_ctrl.dram.perBankWrBursts::6        169718                       # Per bank write bursts (Count)
system.mem_ctrl.dram.perBankWrBursts::7        169321                       # Per bank write bursts (Count)
system.mem_ctrl.dram.perBankWrBursts::8        169837                       # Per bank write bursts (Count)
system.mem_ctrl.dram.perBankWrBursts::9        169911                       # Per bank write bursts (Count)
system.mem_ctrl.dram.perBankWrBursts::10       169618                       # Per bank write bursts (Count)
system.mem_ctrl.dram.perBankWrBursts::11       173031                       # Per bank write bursts (Count)
system.mem_ctrl.dram.perBankWrBursts::12       173306                       # Per bank write bursts (Count)
system.mem_ctrl.dram.perBankWrBursts::13       172927                       # Per bank write bursts (Count)
system.mem_ctrl.dram.perBankWrBursts::14       173326                       # Per bank write bursts (Count)
system.mem_ctrl.dram.perBankWrBursts::15       173019                       # Per bank write bursts (Count)
system.mem_ctrl.dram.perBankWrBursts::16       172636                       # Per bank write bursts (Count)
system.mem_ctrl.dram.perBankWrBursts::17       172223                       # Per bank write bursts (Count)
system.mem_ctrl.dram.perBankWrBursts::18       172915                       # Per bank write bursts (Count)
system.mem_ctrl.dram.perBankWrBursts::19       172747                       # Per bank write bursts (Count)
system.mem_ctrl.dram.perBankWrBursts::20       172316                       # Per bank write bursts (Count)
system.mem_ctrl.dram.perBankWrBursts::21       876931                       # Per bank write bursts (Count)
system.mem_ctrl.dram.perBankWrBursts::22       172575                       # Per bank write bursts (Count)
system.mem_ctrl.dram.perBankWrBursts::23       172800                       # Per bank write bursts (Count)
system.mem_ctrl.dram.perBankWrBursts::24       173110                       # Per bank write bursts (Count)
system.mem_ctrl.dram.perBankWrBursts::25       172457                       # Per bank write bursts (Count)
system.mem_ctrl.dram.perBankWrBursts::26       173066                       # Per bank write bursts (Count)
system.mem_ctrl.dram.perBankWrBursts::27       172787                       # Per bank write bursts (Count)
system.mem_ctrl.dram.perBankWrBursts::28       173264                       # Per bank write bursts (Count)
system.mem_ctrl.dram.perBankWrBursts::29       172207                       # Per bank write bursts (Count)
system.mem_ctrl.dram.perBankWrBursts::30       173276                       # Per bank write bursts (Count)
system.mem_ctrl.dram.perBankWrBursts::31       172877                       # Per bank write bursts (Count)
system.mem_ctrl.dram.totQLat             1525551390840                       # Total ticks spent queuing (Tick)
system.mem_ctrl.dram.totBusLat           741040325256                       # Total ticks spent in databus transfers (Tick)
system.mem_ctrl.dram.totMemAccLat        5415790697376                       # Total ticks spent from burst creation until serviced by the DRAM (Tick)
system.mem_ctrl.dram.avgQLat                  6859.46                       # Average queueing delay per DRAM burst ((Tick/Count))
system.mem_ctrl.dram.avgBusLat                3332.00                       # Average bus latency per DRAM burst ((Tick/Count))
system.mem_ctrl.dram.avgMemAccLat            24351.46                       # Average memory access latency per DRAM burst ((Tick/Count))
system.mem_ctrl.dram.readRowHits            187996845                       # Number of row buffer hits during reads (Count)
system.mem_ctrl.dram.writeRowHits             1746033                       # Number of row buffer hits during writes (Count)
system.mem_ctrl.dram.readRowHitRate             84.53                       # Row buffer hit rate for reads (Ratio)
system.mem_ctrl.dram.writeRowHitRate            28.11                       # Row buffer hit rate for writes (Ratio)
system.mem_ctrl.dram.bytesPerActivate::samples     38869190                       # Bytes accessed per row activation (Byte)
system.mem_ctrl.dram.bytesPerActivate::mean   376.420780                       # Bytes accessed per row activation (Byte)
system.mem_ctrl.dram.bytesPerActivate::gmean   195.927472                       # Bytes accessed per row activation (Byte)
system.mem_ctrl.dram.bytesPerActivate::stdev   402.257445                       # Bytes accessed per row activation (Byte)
system.mem_ctrl.dram.bytesPerActivate::0-127     16925798     43.55%     43.55% # Bytes accessed per row activation (Byte)
system.mem_ctrl.dram.bytesPerActivate::128-255      6442627     16.58%     60.12% # Bytes accessed per row activation (Byte)
system.mem_ctrl.dram.bytesPerActivate::256-383      2858751      7.35%     67.48% # Bytes accessed per row activation (Byte)
system.mem_ctrl.dram.bytesPerActivate::384-511       956427      2.46%     69.94% # Bytes accessed per row activation (Byte)
system.mem_ctrl.dram.bytesPerActivate::512-639       697204      1.79%     71.73% # Bytes accessed per row activation (Byte)
system.mem_ctrl.dram.bytesPerActivate::640-767       513921      1.32%     73.05% # Bytes accessed per row activation (Byte)
system.mem_ctrl.dram.bytesPerActivate::768-895       430361      1.11%     74.16% # Bytes accessed per row activation (Byte)
system.mem_ctrl.dram.bytesPerActivate::896-1023       398032      1.02%     75.18% # Bytes accessed per row activation (Byte)
system.mem_ctrl.dram.bytesPerActivate::1024-1151      9646069     24.82%    100.00% # Bytes accessed per row activation (Byte)
system.mem_ctrl.dram.bytesPerActivate::total     38869190                       # Bytes accessed per row activation (Byte)
system.mem_ctrl.dram.dramBytesRead        14233667712                       # Total bytes read (Byte)
system.mem_ctrl.dram.dramBytesWritten       397506048                       # Total bytes written (Byte)
system.mem_ctrl.dram.avgRdBW              1986.823988                       # Average DRAM read bandwidth in MiBytes/s ((Byte/Second))
system.mem_ctrl.dram.avgWrBW                55.486370                       # Average DRAM write bandwidth in MiBytes/s ((Byte/Second))
system.mem_ctrl.dram.peakBW                  19207.00                       # Theoretical peak bandwidth in MiByte/s ((Byte/Second))
system.mem_ctrl.dram.busUtil                    10.63                       # Data bus utilization in percentage (Ratio)
system.mem_ctrl.dram.busUtilRead                10.34                       # Data bus utilization in percentage for reads (Ratio)
system.mem_ctrl.dram.busUtilWrite                0.29                       # Data bus utilization in percentage for writes (Ratio)
system.mem_ctrl.dram.pageHitRate                83.00                       # Row buffer hit rate, read and write combined (Ratio)
system.mem_ctrl.dram.power_state.pwrStateResidencyTicks::UNDEFINED 7164030532500                       # Cumulative time (in ticks) in various power states (Tick)
system.mem_ctrl.dram.rank0.actEnergy     29919960946.456379                       # Energy for activate commands per rank (pJ) (Joule)
system.mem_ctrl.dram.rank0.preEnergy     52820211218.943100                       # Energy for precharge commands per rank (pJ) (Joule)
system.mem_ctrl.dram.rank0.readEnergy    281020494132.957947                       # Energy for read commands per rank (pJ) (Joule)
system.mem_ctrl.dram.rank0.writeEnergy   6470524954.336825                       # Energy for write commands per rank (pJ) (Joule)
system.mem_ctrl.dram.rank0.refreshEnergy 621878346134.495361                       # Energy for refresh commands per rank (pJ) (Joule)
system.mem_ctrl.dram.rank0.actBackEnergy 3356441748028.838867                       # Energy for active background per rank (pJ) (Joule)
system.mem_ctrl.dram.rank0.preBackEnergy 21202115471.922165                       # Energy for precharge background per rank (pJ) (Joule)
system.mem_ctrl.dram.rank0.actPowerDownEnergy            0                       # Energy for active power-down per rank (pJ) (Joule)
system.mem_ctrl.dram.rank0.prePowerDownEnergy            0                       # Energy for precharge power-down per rank (pJ) (Joule)
system.mem_ctrl.dram.rank0.selfRefreshEnergy            0                       # Energy for self refresh per rank (pJ) (Joule)
system.mem_ctrl.dram.rank0.totalEnergy   4369753400887.312988                       # Total energy per rank (pJ) (Joule)
system.mem_ctrl.dram.rank0.averagePower    609.957395                       # Core power per rank (mW) (Watt)
system.mem_ctrl.dram.rank0.totalIdleTime            0                       # Total Idle time Per DRAM Rank (Tick)
system.mem_ctrl.dram.rank0.pwrStateTime::IDLE  36649313222                       # Time in different power states (Tick)
system.mem_ctrl.dram.rank0.pwrStateTime::REF 322047250000                       # Time in different power states (Tick)
system.mem_ctrl.dram.rank0.pwrStateTime::SREF            0                       # Time in different power states (Tick)
system.mem_ctrl.dram.rank0.pwrStateTime::PRE_PDN            0                       # Time in different power states (Tick)
system.mem_ctrl.dram.rank0.pwrStateTime::ACT 6805333969278                       # Time in different power states (Tick)
system.mem_ctrl.dram.rank0.pwrStateTime::ACT_PDN            0                       # Time in different power states (Tick)
system.mem_ctrl.dram.rank1.actEnergy     30691755385.140205                       # Energy for activate commands per rank (pJ) (Joule)
system.mem_ctrl.dram.rank1.preEnergy     54182719741.430565                       # Energy for precharge commands per rank (pJ) (Joule)
system.mem_ctrl.dram.rank1.readEnergy    329003901617.574097                       # Energy for read commands per rank (pJ) (Joule)
system.mem_ctrl.dram.rank1.writeEnergy   8181647351.488573                       # Energy for write commands per rank (pJ) (Joule)
system.mem_ctrl.dram.rank1.refreshEnergy 621878346134.495361                       # Energy for refresh commands per rank (pJ) (Joule)
system.mem_ctrl.dram.rank1.actBackEnergy 3366628968100.130859                       # Energy for active background per rank (pJ) (Joule)
system.mem_ctrl.dram.rank1.preBackEnergy 14169313798.361750                       # Energy for precharge background per rank (pJ) (Joule)
system.mem_ctrl.dram.rank1.actPowerDownEnergy            0                       # Energy for active power-down per rank (pJ) (Joule)
system.mem_ctrl.dram.rank1.prePowerDownEnergy            0                       # Energy for precharge power-down per rank (pJ) (Joule)
system.mem_ctrl.dram.rank1.selfRefreshEnergy            0                       # Energy for self refresh per rank (pJ) (Joule)
system.mem_ctrl.dram.rank1.totalEnergy   4424736652127.880859                       # Total energy per rank (pJ) (Joule)
system.mem_ctrl.dram.rank1.averagePower    617.632300                       # Core power per rank (mW) (Watt)
system.mem_ctrl.dram.rank1.totalIdleTime            0                       # Total Idle time Per DRAM Rank (Tick)
system.mem_ctrl.dram.rank1.pwrStateTime::IDLE  13913808486                       # Time in different power states (Tick)
system.mem_ctrl.dram.rank1.pwrStateTime::REF 322047250000                       # Time in different power states (Tick)
system.mem_ctrl.dram.rank1.pwrStateTime::SREF            0                       # Time in different power states (Tick)
system.mem_ctrl.dram.rank1.pwrStateTime::PRE_PDN            0                       # Time in different power states (Tick)
system.mem_ctrl.dram.rank1.pwrStateTime::ACT 6828069474014                       # Time in different power states (Tick)
system.mem_ctrl.dram.rank1.pwrStateTime::ACT_PDN            0                       # Time in different power states (Tick)
system.mem_ctrl.power_state.pwrStateResidencyTicks::UNDEFINED 7164030532500                       # Cumulative time (in ticks) in various power states (Tick)
system.membus.transDist::ReadReq            239017997                       # Transaction distribution (Count)
system.membus.transDist::ReadResp           239018000                       # Transaction distribution (Count)
system.membus.transDist::WriteReq            35743727                       # Transaction distribution (Count)
system.membus.transDist::WriteResp           35743726                       # Transaction distribution (Count)
system.membus.transDist::SoftPFReq                 29                       # Transaction distribution (Count)
system.membus.transDist::SoftPFResp                29                       # Transaction distribution (Count)
system.membus.transDist::LoadLockedReq              4                       # Transaction distribution (Count)
system.membus.transDist::StoreCondReq               4                       # Transaction distribution (Count)
system.membus.transDist::StoreCondResp              4                       # Transaction distribution (Count)
system.membus.pktCount_system.cpu.fetch1.icache_port::system.mem_ctrl.port    165787990                       # Packet count per connected requestor and responder (Count)
system.membus.pktCount_system.cpu.execute.dcache_port::system.mem_ctrl.port    383735530                       # Packet count per connected requestor and responder (Count)
system.membus.pktCount::total               549523520                       # Packet count per connected requestor and responder (Count)
system.membus.pktSize_system.cpu.fetch1.icache_port::system.mem_ctrl.port   5305215680                       # Cumulative packet size per connected requestor and responder (Byte)
system.membus.pktSize_system.cpu.execute.dcache_port::system.mem_ctrl.port    767472217                       # Cumulative packet size per connected requestor and responder (Byte)
system.membus.pktSize::total               6072687897                       # Cumulative packet size per connected requestor and responder (Byte)
system.membus.snoops                                0                       # Total snoops (Count)
system.membus.snoopTraffic                          0                       # Total snoop traffic (Byte)
system.membus.snoopFanout::samples          274761761                       # Request fanout histogram (Count)
system.membus.snoopFanout::mean                     0                       # Request fanout histogram (Count)
system.membus.snoopFanout::stdev                    0                       # Request fanout histogram (Count)
system.membus.snoopFanout::underflows               0      0.00%      0.00% # Request fanout histogram (Count)
system.membus.snoopFanout::0                274761761    100.00%    100.00% # Request fanout histogram (Count)
system.membus.snoopFanout::1                        0      0.00%    100.00% # Request fanout histogram (Count)
system.membus.snoopFanout::overflows                0      0.00%    100.00% # Request fanout histogram (Count)
system.membus.snoopFanout::min_value                0                       # Request fanout histogram (Count)
system.membus.snoopFanout::max_value                0                       # Request fanout histogram (Count)
system.membus.snoopFanout::total            274761761                       # Request fanout histogram (Count)
system.membus.power_state.pwrStateResidencyTicks::UNDEFINED 7164030532500                       # Cumulative time (in ticks) in various power states (Tick)
system.membus.reqLayer0.occupancy        155252746000                       # Layer occupancy (ticks) (Tick)
system.membus.reqLayer0.utilization               0.0                       # Layer utilization (Ratio)
system.membus.respLayer0.occupancy       211866185814                       # Layer occupancy (ticks) (Tick)
system.membus.respLayer0.utilization              0.0                       # Layer utilization (Ratio)
system.membus.respLayer1.occupancy       183500274802                       # Layer occupancy (ticks) (Tick)
system.membus.respLayer1.utilization              0.0                       # Layer utilization (Ratio)
system.membus.snoop_filter.totRequests              0                       # Total number of requests made to the snoop filter. (Count)
system.membus.snoop_filter.hitSingleRequests            0                       # Number of requests hitting in the snoop filter with a single holder of the requested data. (Count)
system.membus.snoop_filter.hitMultiRequests            0                       # Number of requests hitting in the snoop filter with multiple (>1) holders of the requested data. (Count)
system.membus.snoop_filter.totSnoops                0                       # Total number of snoops made to the snoop filter. (Count)
system.membus.snoop_filter.hitSingleSnoops            0                       # Number of snoops hitting in the snoop filter with a single holder of the requested data. (Count)
system.membus.snoop_filter.hitMultiSnoops            0                       # Number of snoops hitting in the snoop filter with multiple (>1) holders of the requested data. (Count)
system.workload.inst.arm                            0                       # number of arm instructions executed (Count)
system.workload.inst.quiesce                        0                       # number of quiesce instructions executed (Count)
system.cpu.idleCycles                     13134564933                       # Total number of cycles that the object has spent stopped (Unspecified)
system.cpu.tickCycles                      1193496132                       # Number of cycles that the object actually ticked (Unspecified)

---------- End Simulation Statistics   ----------
